geometry optimzed in LAMMPS
_audit_creation_date              2020-11-30 
_audit_creation_method            'lammps2cif' 
_symmetry_space_group_name_H-M    'P1' 
_symmetry_Int_Tables_number       1 
_symmetry_cell_setting            triclinic 
loop_ 
_symmetry_equiv_pos_as_xyz 
  x,y,z 
_cell_length_a                    42.45152722 
_cell_length_b                    42.39044155896344 
_cell_length_c                    32.64039366900102 
_cell_angle_alpha                 89.92316940067926 
_cell_angle_beta                  90.13963172690991 
_cell_angle_gamma                 121.51245256795463 
loop_ 
_atom_site_label 
_atom_site_type_symbol 
_atom_site_fract_x 
_atom_site_fract_y 
_atom_site_fract_z 
_atom_site_charge 
C1          C  0.33742899  0.17416303  0.70703174     0.46500
H2          H  0.33992354  0.17628130  0.67310274    -0.02600
C3          C  0.33101392  0.16929164  0.78658117     0.46500
H4          H  0.32832500  0.16732437  0.82048162    -0.02600
C5          C  0.35599526  0.21170189  0.72894582    -0.16300
C6          C  0.29723051  0.15347746  0.72221204    -0.16000
C7          C  0.35456326  0.15381356  0.72651364    -0.16400
C8          C  0.35217602  0.20926433  0.77062765    -0.16400
C9          C  0.29402524  0.15118554  0.76397375    -0.15900
C10         C  0.35110353  0.15084590  0.76835716    -0.16300
C11         C  0.15762741  0.33429583  0.29232065     0.46500
H12         H  0.15702073  0.33226015  0.32619326    -0.02600
C13         C  0.15733430  0.33725407  0.21293914     0.46500
H14         H  0.15689051  0.33862485  0.17898239    -0.02600
C15         C  0.19673456  0.35481232  0.27384831    -0.16300
C16         C  0.13784724  0.29603595  0.27171218    -0.16000
C17         C  0.13874714  0.35426655  0.27556232    -0.16400
C18         C  0.19654073  0.35619560  0.23152220    -0.16400
C19         C  0.13690898  0.29767747  0.22961706    -0.15900
C20         C  0.13868859  0.35584432  0.23345795    -0.16300
O21         O  0.48404413  0.43636366  0.94498727    -0.77500
C22         C  0.08480404  0.04546271  0.92982852     0.83500
O23         O  0.02583371  0.48018893  0.08469378    -0.78600
O24         O  0.04377982  0.09381926  0.02003873    -0.80100
O25         O  0.43186377  0.01009949  0.94474345    -0.79900
O26         O  0.42921457  0.43168345  0.94740851    -0.78500
Zn27       Zn  0.02197075  0.47624281  0.98087749     1.55700
O28         O  0.48673385  0.06193160  0.93587579    -0.79900
Cd29       Cd  0.44064760  0.47717917  0.98251993     1.59700
Cd30       Cd  0.49995193  0.00883998  0.05948098     1.59600
O31         O  0.40551401  0.45776939  0.03227763    -0.79900
O32         O  0.49777190  0.00524500  0.99818272    -1.90400
Cd33       Cd  0.02636526  0.05420655  0.97416043     1.59900
O34         O  0.44261280  0.48087511  0.08670119    -0.79900
O35         O  0.07211009  0.06549288  0.94077352    -0.78500
C36         C  0.03875758  0.46229212  0.06752459     0.84000
C37         C  0.45001756  0.42032559  0.93497301     0.83700
O38         O  0.06996090  0.01185247  0.94117054    -0.77500
C39         C  0.45205883  0.04220552  0.92909330     0.84500
O40         O  0.03795091  0.45812810  0.02884607    -0.77600
C41         C  0.41043503  0.46222602  0.07081184     0.84600
C42         C  0.04116480  0.09141170  0.05897176     0.84900
O43         O  0.02647109  0.06050179  0.07771195    -0.80000
O44         O  0.07118620  0.01440963  0.54976756    -0.77500
C45         C  0.45504028  0.42448387  0.56995957     0.83500
O46         O  0.02145131  0.47484364  0.42024839    -0.78600
O47         O  0.40679319  0.46137628  0.47567978    -0.80100
O48         O  0.48852450  0.06673089  0.55381029    -0.79900
O49         O  0.06640646  0.06409872  0.55634579    -0.78500
Zn50       Zn  0.02201688  0.47916040  0.52343298     1.55700
O51         O  0.43563554  0.01218747  0.55391492    -0.79900
Cd52       Cd  0.02089660  0.05061867  0.52034038     1.59700
Cd53       Cd  0.50103663  0.00581979  0.43836877     1.59600
O54         O  0.03868104  0.08660660  0.47165629    -0.79900
O55         O  0.50019667  0.00521387  0.49989332    -1.90400
Cd56       Cd  0.44501996  0.48120081  0.52346123     1.59900
O57         O  0.02596554  0.05186180  0.41550163    -0.79900
O58         O  0.43518009  0.43798076  0.56128772    -0.78500
C59         C  0.03911912  0.46211316  0.43821575     0.84000
C60         C  0.08322745  0.04700484  0.56311735     0.83700
O61         O  0.48753400  0.43789921  0.55584401    -0.77500
C62         C  0.45477231  0.04617297  0.56416670     0.84500
O63         O  0.04250823  0.46285442  0.47708361    -0.77600
C64         C  0.03943669  0.08322184  0.43297845     0.84600
C65         C  0.41034419  0.46219901  0.43681953     0.84900
O66         O  0.44188246  0.47764284  0.41954369    -0.80000
C67         C  0.05961747  0.15980886  0.13144128     0.30800
C68         C  0.05485102  0.17401190  0.16812634    -0.35600
C69         C  0.08050246  0.21150239  0.17573376     0.16700
C70         C  0.10911999  0.23337381  0.14935581     0.22600
C71         C  0.11312151  0.21951450  0.11197655    -0.33700
C72         C  0.08724985  0.18207428  0.10415066     0.16600
O73         O  0.04003984  0.12508777  0.11928126    -0.25700
C74         C  0.05485160  0.12520053  0.08338313     0.06400
C75         C  0.08417796  0.15994252  0.07220368    -0.30600
O76         O  0.13199946  0.26654898  0.16446857    -0.22400
C77         C  0.11802948  0.26588700  0.20112492    -0.02400
C78         C  0.08508522  0.23278416  0.20900948    -0.16900
H79         H  0.03338277  0.15677073  0.18979040     0.21100
H80         H  0.13552274  0.23639387  0.09112652     0.19500
H81         H  0.10133467  0.16746844  0.04515383     0.19400
H82         H  0.06787881  0.22491555  0.23603619     0.15300
C83         C  0.28446758  0.40833833  0.18571227     0.30800
C84         C  0.32259863  0.43421141  0.18450931    -0.35600
C85         C  0.34069752  0.43518947  0.14821538     0.16700
C86         C  0.32235888  0.41267300  0.11512497     0.22600
C87         C  0.28426073  0.38654041  0.11650429    -0.33700
C88         C  0.26629992  0.38520269  0.15306376     0.16600
O89         O  0.26241930  0.40209112  0.21699431    -0.25700
C90         C  0.22981406  0.37393424  0.20488291     0.06400
C91         C  0.23052493  0.36263410  0.16499537    -0.30600
O92         O  0.34449580  0.41895287  0.08386058    -0.22400
C93         C  0.37754900  0.44548037  0.09723423    -0.02400
C94         C  0.37690655  0.45655839  0.13717714    -0.16900
H95         H  0.33718821  0.45207516  0.21026870     0.21100
H96         H  0.26969918  0.36836869  0.09094855     0.19500
H97         H  0.20828474  0.34024704  0.14772947     0.19400
H98         H  0.39959432  0.47789605  0.15500189     0.15300
C99         C  0.09709702  0.38256227  0.15895383     0.30800
C100        C  0.07897405  0.37996719  0.12193696    -0.35600
C101        C  0.07176495  0.40821364  0.11438138     0.16700
C102        C  0.08126216  0.43675473  0.14160034     0.22600
C103        C  0.09990418  0.43963621  0.17825370    -0.33700
C104        C  0.10739889  0.41159995  0.18562314     0.16600
O105        O  0.10649259  0.35921892  0.17234418    -0.25700
C106        C  0.12278551  0.37330882  0.20824060     0.06400
C107        C  0.12480127  0.40635531  0.21756710    -0.30600
O108        O  0.07081019  0.45949986  0.12899490    -0.22400
C109        C  0.05490510  0.44565499  0.09294839    -0.02400
C110        C  0.05489067  0.41389356  0.08215624    -0.16900
H111        H  0.07097813  0.35747609  0.10059429     0.21100
H112        H  0.10782814  0.46206315  0.19965899     0.19500
H113        H  0.13764410  0.42424572  0.24376471     0.19400
H114        H  0.04343178  0.39708936  0.05491636     0.15300
C115        C  0.08091459  0.15330835  0.35919869     0.30800
C116        C  0.09735847  0.16971484  0.32165742    -0.35600
C117        C  0.10767386  0.20679667  0.31685892     0.16700
C118        C  0.10170654  0.22620637  0.34656696     0.22600
C119        C  0.08615529  0.21013492  0.38445005    -0.33700
C120        C  0.07628471  0.17326448  0.38946674     0.16600
O121        O  0.06835976  0.11873668  0.37009949    -0.25700
C122        C  0.05610397  0.11687980  0.40802844     0.06400
C123        C  0.06049190  0.14997779  0.42169433    -0.30600
O124        O  0.11162574  0.25986849  0.33469194    -0.22400
C125        C  0.12396917  0.26210092  0.29673966    -0.02400
C126        C  0.12343424  0.23028891  0.28470868    -0.16900
H127        H  0.10142151  0.15454663  0.29771447     0.21100
H128        H  0.08162761  0.22516302  0.40815632     0.19500
H129        H  0.05256993  0.15577516  0.45091318     0.19400
H130        H  0.13295004  0.22496606  0.25632216     0.15300
C131        C  0.32180953  0.42000759  0.39300453     0.30800
C132        C  0.28362729  0.40573608  0.39187159    -0.35600
C133        C  0.26622517  0.39186408  0.35393209     0.16700
C134        C  0.28487706  0.39155751  0.31962274     0.22600
C135        C  0.32312021  0.40606377  0.32060608    -0.33700
C136        C  0.34065607  0.42039658  0.35841293     0.16600
O137        O  0.34363286  0.43450021  0.42520467    -0.25700
C138        C  0.37697437  0.44462399  0.41096185     0.06400
C139        C  0.37679800  0.43666938  0.36955980    -0.30600
O140        O  0.26313593  0.37777099  0.28731034    -0.22400
C141        C  0.23016453  0.36988600  0.30060792    -0.02400
C142        C  0.23054949  0.37771479  0.34216550    -0.16900
H143        H  0.26860839  0.40580201  0.41857794     0.21100
H144        H  0.33819961  0.40657082  0.29367389     0.19500
H145        H  0.39990708  0.44182526  0.35059846     0.19400
H146        H  0.20824343  0.37455867  0.36107747     0.15300
C147        C  0.08781453  0.38754199  0.32410635     0.30800
C148        C  0.06124704  0.39755037  0.32699729    -0.35600
C149        C  0.06256013  0.41662409  0.36260112     0.16700
C150        C  0.08786699  0.42487520  0.39365605     0.22600
C151        C  0.11470476  0.41512432  0.39056514    -0.33700
C152        C  0.11360375  0.39631658  0.35469098     0.16600
O153        O  0.09239456  0.37071477  0.29284418    -0.25700
C154        C  0.12186056  0.36911047  0.30315083     0.06400
C155        C  0.13589109  0.38420750  0.34157280    -0.30600
O156        O  0.08330556  0.44210017  0.42467632    -0.22400
C157        C  0.05500818  0.44524058  0.41292153    -0.02400
C158        C  0.04122931  0.43011564  0.37451148    -0.16900
H159        H  0.04118212  0.39124155  0.30295622     0.21100
H160        H  0.13510747  0.42187237  0.41432943     0.19500
H161        H  0.15987757  0.38720054  0.35695047     0.19400
H162        H  0.01823921  0.42858293  0.35818000     0.15300
C163        C  0.39844792  0.07233967  0.88026947     0.30800
C164        C  0.36904285  0.07834718  0.87544220    -0.35600
C165        C  0.37137592  0.10009318  0.84168369     0.16700
C166        C  0.40022858  0.11424507  0.81413237     0.22600
C167        C  0.42974034  0.10859218  0.81917402    -0.33700
C168        C  0.42781264  0.08757648  0.85335144     0.16600
O169        O  0.40243212  0.05349934  0.91003891    -0.25700
C170        C  0.43505799  0.05729193  0.90234333     0.06400
C171        C  0.45213023  0.07837461  0.86761890    -0.30600
O172        O  0.39680054  0.13354457  0.78467528    -0.22400
C173        C  0.36558038  0.13221779  0.79367641    -0.02400
C174        C  0.34861953  0.11193129  0.82892871    -0.16900
H175        H  0.34622555  0.06727109  0.89677044     0.21100
H176        H  0.45284244  0.12019360  0.79819855     0.19500
H177        H  0.47864753  0.08582891  0.85483880     0.19400
H178        H  0.32310523  0.10643895  0.84280997     0.15300
C179        C  0.40310205  0.29397600  0.82227399     0.30800
C180        C  0.43466143  0.32800737  0.83232810    -0.35600
C181        C  0.43009235  0.34865943  0.86258363     0.16700
C182        C  0.39654040  0.33721011  0.88097232     0.22600
C183        C  0.36488538  0.30297683  0.87102616    -0.33700
C184        C  0.36971381  0.28177257  0.84148244     0.16600
O185        O  0.40142903  0.27014656  0.79519298    -0.25700
C186        C  0.36671628  0.24192984  0.79755978     0.06400
C187        C  0.34563725  0.24746545  0.82589961    -0.30600
O188        O  0.39878774  0.36111051  0.90851155    -0.22400
C189        C  0.43436455  0.38778247  0.90810760    -0.02400
C190        C  0.45512490  0.38144461  0.88022400    -0.16900
H191        H  0.46109117  0.33745726  0.81799744     0.21100
H192        H  0.33856513  0.29330880  0.88574545     0.19500
H193        H  0.31669800  0.22923204  0.83317680     0.19400
H194        H  0.48439302  0.39857001  0.87389618     0.15300
C195        C  0.15639294  0.06737761  0.86032807     0.30800
C196        C  0.17668286  0.06080212  0.83127150    -0.35600
C197        C  0.20794591  0.09234989  0.81515393     0.16700
C198        C  0.21873951  0.12781800  0.82731562     0.22600
C199        C  0.19820111  0.13438419  0.85577144    -0.33700
C200        C  0.16678856  0.10296308  0.87142379     0.16600
O201        O  0.12644011  0.04212361  0.87978656    -0.25700
C202        C  0.11747293  0.06195863  0.90320543     0.06400
C203        C  0.14152058  0.09990250  0.89909246    -0.30600
O204        O  0.24993542  0.15315001  0.81027771    -0.22400
C205        C  0.25887826  0.13376998  0.78628809    -0.02400
C206        C  0.23384869  0.09584203  0.78787169    -0.16900
H207        H  0.16884850  0.03308543  0.82214957     0.21100
H208        H  0.20638828  0.16208396  0.86539115     0.19500
H209        H  0.14059473  0.12200144  0.91451028     0.19400
H210        H  0.23544030  0.07411020  0.77248932     0.15300
C211        C  0.37692194  0.09774809  0.67019731     0.30800
C212        C  0.37203840  0.06458915  0.65467317    -0.35600
C213        C  0.39992136  0.06809187  0.62853783     0.16700
C214        C  0.43059882  0.10189213  0.61855986     0.22600
C215        C  0.43518855  0.13507710  0.63356354    -0.33700
C216        C  0.40722630  0.13158661  0.65949487     0.16600
O217        O  0.35465020  0.10091997  0.69568830    -0.25700
C218        C  0.37087317  0.13724224  0.70116248     0.06400
C219        C  0.40344351  0.15773228  0.67918583    -0.30600
O220        O  0.45379949  0.09868504  0.59465582    -0.22400
C221        C  0.43766397  0.06236973  0.58886463    -0.02400
C222        C  0.40398315  0.04196082  0.60912694    -0.16900
H223        H  0.34831779  0.03791199  0.66269509     0.21100
H224        H  0.45906096  0.16174271  0.62583603     0.19500
H225        H  0.42179019  0.18746660  0.67828688     0.19400
H226        H  0.38556031  0.01220895  0.61000783     0.15300
C227        C  0.38649553  0.29819310  0.68483234     0.30800
C228        C  0.38585687  0.33025451  0.67614623    -0.35600
C229        C  0.40918846  0.35245354  0.64447098     0.18900
C230        C  0.43234712  0.34423282  0.62373514     0.22600
C231        C  0.43290881  0.31218298  0.63234887    -0.33700
C232        C  0.40882481  0.28946836  0.66312904     0.16600
O233        O  0.36553243  0.27245292  0.71161354    -0.25700
C234        C  0.37425347  0.24682647  0.70640634     0.06400
C235        C  0.40087624  0.25577970  0.67664346    -0.30600
O236        O  0.45168431  0.36863717  0.59513794    -0.22400
C237        C  0.44030465  0.39241717  0.59706079    -0.02400
C238        C  0.41379573  0.38378086  0.62706584    -0.16900
H239        H  0.36771325  0.33684772  0.69213311     0.21100
H240        H  0.45016555  0.30496726  0.61545684     0.19500
H241        H  0.41228411  0.23960673  0.66619648     0.19400
H242        H  0.40014673  0.39852192  0.63493797     0.15300
C243        C  0.16893678  0.07851219  0.61002923     0.30800
C244        C  0.20194956  0.07964624  0.61846011    -0.35600
C245        C  0.22491452  0.10532549  0.64820520     0.16700
C246        C  0.21569413  0.12784907  0.66873160     0.22600
C247        C  0.18311769  0.12730409  0.65964497    -0.33700
C248        C  0.16044318  0.10203238  0.62948712     0.16600
O249        O  0.14286986  0.05587708  0.58428805    -0.25700
C250        C  0.11766104  0.06543731  0.58689801     0.06400
C251        C  0.12721387  0.09415008  0.61432400    -0.30600
O252        O  0.24000566  0.14805240  0.69718919    -0.22400
C253        C  0.26539694  0.13880429  0.69429214    -0.02400
C254        C  0.25773327  0.11262721  0.66418687    -0.16900
H255        H  0.20897454  0.06144105  0.60333275     0.21100
H256        H  0.17569450  0.14492250  0.67543759     0.19500
H257        H  0.11153978  0.10673648  0.62252050     0.19400
H258        H  0.27332727  0.09983956  0.65649673     0.15300
C259        C  0.33314312  0.67336468  0.71003970     0.46500
H260        H  0.33515889  0.67504164  0.67608015    -0.02600
C261        C  0.32738533  0.66867539  0.78954048     0.46500
H262        H  0.32507432  0.66694325  0.82348171    -0.02600
C263        C  0.35301345  0.71108667  0.73149095    -0.16300
C264        C  0.29312214  0.65425768  0.72581534    -0.16000
C265        C  0.34962855  0.65212398  0.72947151    -0.16400
C266        C  0.34959007  0.70855563  0.77329800    -0.16400
C267        C  0.29024420  0.65160153  0.76754125    -0.15900
C268        C  0.34638963  0.64937812  0.77133432    -0.16300
C269        C  0.16238504  0.83509448  0.28996015     0.46500
H270        H  0.16174860  0.83329270  0.32385935    -0.02600
C271        C  0.16263714  0.83754328  0.21048141     0.46500
H272        H  0.16245948  0.83853878  0.17648489    -0.02600
C273        C  0.20151728  0.85480315  0.27161781    -0.16300
C274        C  0.14209192  0.79675315  0.26987469    -0.16000
C275        C  0.14397281  0.85529090  0.27248945    -0.16400
C276        C  0.20159831  0.85607148  0.22942189    -0.16400
C277        C  0.14167239  0.79805885  0.22779937    -0.15900
C278        C  0.14456822  0.85708945  0.23032982    -0.16300
O279        O  0.48845391  0.93606646  0.94562220    -0.77500
C280        C  0.08010760  0.54324929  0.93228775     0.83500
O281        O  0.03250218  0.98335056  0.08253367    -0.78600
O282        O  0.04240042  0.59080071  0.02352023    -0.80100
O283        O  0.42845841  0.51124178  0.94862634    -0.79900
O284        O  0.43315120  0.93029856  0.94856251    -0.78500
Zn285      Zn  0.02644366  0.97838568  0.97820363     1.55700
O286        O  0.48394933  0.56163201  0.93753347    -0.79900
Cd287      Cd  0.44462955  0.97730831  0.98057563     1.59700
Cd288      Cd  0.49549990  0.50865905  0.06123267     1.59600
O289        O  0.40992662  0.95932088  0.03050169    -0.79900
O290        O  0.49377867  0.50468264  0.99988988    -1.90400
Cd291      Cd  0.02203276  0.55195482  0.97713331     1.59900
O292        O  0.44730399  0.98182843  0.08481112    -0.79900
O293        O  0.06551733  0.56211843  0.94057722    -0.78500
C294        C  0.04558915  0.96572750  0.06500510     0.84000
C295        C  0.45414376  0.91889206  0.93699751     0.83700
O296        O  0.06724747  0.51069371  0.94641307    -0.77500
C297        C  0.44910652  0.54289321  0.93219733     0.84500
O298        O  0.04431904  0.96152333  0.02622819    -0.77600
C299        C  0.41509895  0.96370855  0.06900060     0.84600
C300        C  0.03793521  0.58817872  0.06219949     0.84900
O301        O  0.02028567  0.55710075  0.08050219    -0.80000
O302        O  0.06534730  0.51670529  0.55719805    -0.77500
C303        C  0.45878848  0.92237062  0.56766160     0.83500
O304        O  0.01931238  0.96911105  0.41565084    -0.78600
O305        O  0.41171380  0.95699628  0.47104453    -0.80100
O306        O  0.48973564  0.57021459  0.55747019    -0.79900
O307        O  0.06139954  0.56705579  0.56074186    -0.78500
Zn308      Zn  0.02507062  0.97676639  0.51949297     1.55700
O309        O  0.43622385  0.51613814  0.55890263    -0.79900
Cd310      Cd  0.01653638  0.55256141  0.52262922     1.59700
Cd311      Cd  0.49579120  0.50533942  0.44089263     1.59600
O312        O  0.03540305  0.58933234  0.47425176    -0.79900
O313        O  0.49688607  0.50666136  0.50212560    -1.90400
Cd314      Cd  0.44799967  0.97846699  0.52018374     1.59900
O315        O  0.02341090  0.55441366  0.41839364    -0.79900
O316        O  0.43905968  0.93598225  0.55882521    -0.78500
C317        C  0.03613124  0.95535800  0.43344761     0.84000
C318        C  0.07742530  0.54955096  0.56971578     0.83700
O319        O  0.49127998  0.93565450  0.55347735    -0.77500
C320        C  0.45628104  0.55001444  0.56912539     0.84500
O321        O  0.04088546  0.95726597  0.47212332    -0.77600
C322        C  0.03683271  0.58587396  0.43564749     0.84600
C323        C  0.41569351  0.95873832  0.43222330     0.84900
O324        O  0.44738616  0.97651398  0.41516855    -0.80000
C325        C  0.05994201  0.65851969  0.13319769     0.30800
C326        C  0.05550386  0.67466134  0.16845896    -0.35600
C327        C  0.08352009  0.71137496  0.17612995     0.16700
C328        C  0.11394831  0.73076265  0.15110483     0.22600
C329        C  0.11797490  0.71489936  0.11537369    -0.33700
C330        C  0.08978647  0.67830914  0.10746225     0.16600
O331        O  0.03784161  0.62412138  0.12090949    -0.25700
C332        C  0.05345886  0.62211028  0.08653731     0.06400
C333        C  0.08569053  0.65501490  0.07648635    -0.30600
O334        O  0.13789917  0.76391699  0.16550283    -0.22400
C335        C  0.12275259  0.76568049  0.20035070    -0.02400
C336        C  0.08838433  0.73416672  0.20792575    -0.16900
H337        H  0.03225725  0.65946051  0.18887070     0.21100
H338        H  0.14173680  0.72978529  0.09557515     0.19500
H339        H  0.10385541  0.66058343  0.05069742     0.19400
H340        H  0.07023311  0.72842929  0.23376697     0.15300
C341        C  0.28959730  0.90897979  0.18432341     0.30800
C342        C  0.32742666  0.93597576  0.18265586    -0.35600
C343        C  0.34569164  0.93688168  0.14651233     0.16700
C344        C  0.32774599  0.91323529  0.11407128     0.22600
C345        C  0.29005956  0.88605970  0.11593848    -0.33700
C346        C  0.27196322  0.88484649  0.15223974     0.16600
O347        O  0.26728072  0.90271108  0.21535073    -0.25700
C348        C  0.23512150  0.87370255  0.20340432     0.06400
C349        C  0.23636521  0.86170465  0.16413948    -0.30600
O350        O  0.34981862  0.91948999  0.08283398    -0.22400
C351        C  0.38246897  0.94714314  0.09554717    -0.02400
C352        C  0.38168288  0.95904070  0.13503190    -0.16900
H353        H  0.34164828  0.95475084  0.20788184     0.21100
H354        H  0.27586797  0.86708712  0.09086115     0.19500
H355        H  0.21450016  0.83868712  0.14719095     0.19400
H356        H  0.40411621  0.98127730  0.15226776     0.15300
C357        C  0.10613802  0.88674456  0.15471039     0.30800
C358        C  0.08916976  0.88520267  0.11714477    -0.35600
C359        C  0.08074894  0.91274986  0.11056238     0.16700
C360        C  0.08807277  0.93972569  0.13915703     0.22600
C361        C  0.10569351  0.94167192  0.17639330    -0.33700
C362        C  0.11441985  0.91431300  0.18279137     0.16600
O363        O  0.11565832  0.86332058  0.16760803    -0.25700
C364        C  0.13002544  0.87579095  0.20465770     0.06400
C365        C  0.13082059  0.90809392  0.21513122    -0.30600
O366        O  0.07663469  0.96190774  0.12721357    -0.22400
C367        C  0.06232429  0.94932789  0.09018409    -0.02400
C368        C  0.06429035  0.91888871  0.07820651    -0.16900
H369        H  0.08269760  0.86382662  0.09474796     0.21100
H370        H  0.11183056  0.96280916  0.19899091     0.19500
H371        H  0.14192661  0.92473599  0.24251489     0.19400
H372        H  0.05432035  0.90314156  0.05008340     0.15300
C373        C  0.08185453  0.65533888  0.36154754     0.30800
C374        C  0.09979215  0.67116171  0.32435793    -0.35600
C375        C  0.10960415  0.70791520  0.31762556     0.16700
C376        C  0.10213178  0.72763605  0.34541968     0.22600
C377        C  0.08496446  0.71211977  0.38293041    -0.33700
C378        C  0.07536067  0.67551090  0.38978142     0.16600
O379        O  0.06904877  0.62100848  0.37366749    -0.25700
C380        C  0.05462353  0.61943802  0.41032518     0.06400
C381        C  0.05800696  0.65259361  0.42202973    -0.30600
O382        O  0.11249070  0.76108932  0.33228365    -0.22400
C383        C  0.12657514  0.76288484  0.29539218    -0.02400
C384        C  0.12635763  0.73084747  0.28515307    -0.16900
H385        H  0.10521529  0.65574794  0.30199877     0.21100
H386        H  0.07906262  0.72737042  0.40500683     0.19500
H387        H  0.04831018  0.65860648  0.44985672     0.19400
H388        H  0.13691890  0.72517081  0.25780540     0.15300
C389        C  0.32706060  0.91602946  0.38931657     0.30800
C390        C  0.28937782  0.90391259  0.38834310    -0.35600
C391        C  0.27137561  0.88984433  0.35081708     0.16700
C392        C  0.28898072  0.88722165  0.31675399     0.22600
C393        C  0.32678349  0.89945961  0.31761807    -0.33700
C394        C  0.34502529  0.91420383  0.35503000     0.16600
O395        O  0.34937990  0.93128319  0.42088877    -0.25700
C396        C  0.38225112  0.93987859  0.40663679     0.06400
C397        C  0.38128551  0.92991258  0.36579123    -0.30600
O398        O  0.26686683  0.87393907  0.28469412    -0.22400
C399        C  0.23484712  0.86871896  0.29803785    -0.02400
C400        C  0.23608067  0.87783717  0.33921384    -0.16900
H401        H  0.27527184  0.90606459  0.41477304     0.21100
H402        H  0.34110616  0.89836872  0.29078088     0.19500
H403        H  0.40397394  0.93388762  0.34684238     0.19400
H404        H  0.21458819  0.87693525  0.35779992     0.15300
C405        C  0.08834713  0.88346695  0.31990632     0.30800
C406        C  0.06108940  0.89264916  0.32190942    -0.35600
C407        C  0.05976447  0.90925179  0.35845603     0.16700
C408        C  0.08311467  0.91562507  0.39110727     0.22600
C409        C  0.11030978  0.90635737  0.38909602    -0.33700
C410        C  0.11208639  0.89042237  0.35226353     0.16600
O411        O  0.09582418  0.86961614  0.28791636    -0.25700
C412        C  0.12518726  0.86834169  0.29957932     0.06400
C413        C  0.13619609  0.88050394  0.33956765    -0.30600
O414        O  0.07754994  0.93214218  0.42197158    -0.22400
C415        C  0.05061547  0.93683051  0.40873972    -0.02400
C416        C  0.03846729  0.92316569  0.36940668    -0.16900
H417        H  0.04291646  0.88814115  0.29633049     0.21100
H418        H  0.12937693  0.91207022  0.41409510     0.19500
H419        H  0.15934636  0.88294251  0.35639826     0.19400
H420        H  0.01724698  0.92366979  0.35147489     0.15300
C421        C  0.39654369  0.57482946  0.88531406     0.30800
C422        C  0.36726370  0.58099981  0.88085137    -0.35600
C423        C  0.36915250  0.60212863  0.84671963     0.16700
C424        C  0.39759464  0.61578520  0.81866946     0.22600
C425        C  0.42719374  0.61027276  0.82357065    -0.33700
C426        C  0.42556487  0.58961213  0.85793029     0.16600
O427        O  0.40036870  0.55563381  0.91470987    -0.25700
C428        C  0.43251771  0.55871209  0.90625278     0.06400
C429        C  0.44952092  0.57972958  0.87148977    -0.30600
O430        O  0.39329872  0.63382920  0.78841898    -0.22400
C431        C  0.36184086  0.63204069  0.79731190    -0.02400
C432        C  0.34578968  0.61298978  0.83348630    -0.16900
H433        H  0.34459694  0.57003988  0.90237575     0.21100
H434        H  0.44985910  0.62124989  0.80204089     0.19500
H435        H  0.47562081  0.58647936  0.85808967     0.19400
H436        H  0.32039324  0.60749318  0.84763691     0.15300
C437        C  0.40451379  0.79019363  0.82823029     0.30800
C438        C  0.43688791  0.82330428  0.83866628    -0.35600
C439        C  0.43342754  0.84395718  0.86977347     0.16700
C440        C  0.40031704  0.83308247  0.88898339     0.22600
C441        C  0.36810338  0.79938723  0.87935036    -0.33700
C442        C  0.37166321  0.77850652  0.84848813     0.16600
O443        O  0.40115211  0.76737819  0.79889526    -0.25700
C444        C  0.36585783  0.74053740  0.80085797     0.06400
C445        C  0.34616850  0.74568351  0.83126866    -0.30600
O446        O  0.40302459  0.85798644  0.91523513    -0.22400
C447        C  0.43841823  0.88478329  0.91308021    -0.02400
C448        C  0.45873181  0.87740496  0.88568605    -0.16900
H449        H  0.46276986  0.83266022  0.82306482     0.21100
H450        H  0.34200378  0.79046365  0.89423270     0.19500
H451        H  0.31715963  0.72823661  0.83873299     0.19400
H452        H  0.48762354  0.89477570  0.87769847     0.15300
C453        C  0.15946531  0.56894829  0.87437843     0.30800
C454        C  0.18966821  0.56718238  0.86029091    -0.35600
C455        C  0.21283043  0.59456501  0.83217104     0.16700
C456        C  0.20657386  0.62163882  0.81834345     0.22600
C457        C  0.17649112  0.62356416  0.83263435    -0.33700
C458        C  0.15358598  0.59643223  0.86117524     0.16600
O459        O  0.13442649  0.54633380  0.90102972    -0.25700
C460        C  0.11245400  0.55976649  0.90519716     0.06400
C461        C  0.12313855  0.59096729  0.88127340    -0.30600
O462        O  0.23226023  0.64482963  0.79261352    -0.22400
C463        C  0.25519739  0.63239764  0.79023124    -0.02400
C464        C  0.24464090  0.60141286  0.81423583    -0.16900
H465        H  0.19500121  0.54619287  0.87087849     0.21100
H466        H  0.17155672  0.64497769  0.82263322     0.19500
H467        H  0.11014344  0.60710119  0.87888259     0.19400
H468        H  0.25871117  0.58646601  0.81823548     0.15300
C469        C  0.37910672  0.59873454  0.67944938     0.30800
C470        C  0.37934321  0.56669635  0.66954898    -0.35600
C471        C  0.40469138  0.57075067  0.63939813     0.16700
C472        C  0.42861049  0.60412704  0.62062836     0.22600
C473        C  0.42806803  0.63609248  0.63018580    -0.33700
C474        C  0.40238359  0.63189970  0.65999099     0.16600
O475        O  0.35774707  0.60133792  0.70681921    -0.25700
C476        C  0.36727050  0.63658008  0.70452106     0.06400
C477        C  0.39483997  0.65676701  0.67596112    -0.30600
O478        O  0.45045427  0.60161813  0.59382980    -0.22400
C479        C  0.43999557  0.56605870  0.59514793    -0.02400
C480        C  0.41154498  0.54554770  0.62277693    -0.16900
H481        H  0.36101953  0.54043027  0.68428123     0.21100
H482        H  0.44634101  0.66237821  0.61541293     0.19500
H483        H  0.40832769  0.68586046  0.66868013     0.19400
H484        H  0.39810223  0.51634308  0.62976765     0.15300
C485        C  0.38891032  0.79889172  0.68676074     0.30800
C486        C  0.39255505  0.83331310  0.67958091    -0.35600
C487        C  0.41381872  0.85298922  0.64535333     0.18900
C488        C  0.43115640  0.84019185  0.62063226     0.22600
C489        C  0.42712099  0.80568302  0.62751148    -0.33700
C490        C  0.40512859  0.78567464  0.66097820     0.16600
O491        O  0.36917911  0.77503983  0.71592168    -0.25700
C492        C  0.37253108  0.74607937  0.70815317     0.06400
C493        C  0.39420774  0.75117665  0.67414937    -0.30600
O494        O  0.44975970  0.86306778  0.59042512    -0.22400
C495        C  0.44365464  0.89053369  0.59536118    -0.02400
C496        C  0.42136812  0.88572871  0.62885952    -0.16900
H497        H  0.37913420  0.84364635  0.69873852     0.21100
H498        H  0.43963021  0.79482315  0.60764651     0.19500
H499        H  0.40049913  0.73200331  0.66023529     0.19400
H500        H  0.41227492  0.90384894  0.63951667     0.15300
C501        C  0.16145284  0.57836452  0.61900526     0.30800
C502        C  0.19267427  0.57681518  0.62931235    -0.35600
C503        C  0.21789396  0.60439933  0.65592950     0.16700
C504        C  0.21251354  0.63138020  0.67188076     0.22600
C505        C  0.18156906  0.63337550  0.66093843    -0.33700
C506        C  0.15650236  0.60596265  0.63382793     0.16600
O507        O  0.13415690  0.55487656  0.59516135    -0.25700
C508        C  0.11150627  0.56769501  0.59421064     0.06400
C509        C  0.12403195  0.59958599  0.61754527    -0.30600
O510        O  0.23856127  0.65298259  0.69819330    -0.22400
C511        C  0.26103604  0.63990756  0.69841345    -0.02400
C512        C  0.24980925  0.60994319  0.67257203    -0.16900
H513        H  0.19679157  0.55532852  0.61773829     0.21100
H514        H  0.17711187  0.65445722  0.67312407     0.19500
H515        H  0.11097241  0.61544032  0.62209703     0.19400
H516        H  0.26253186  0.59376150  0.66811778     0.15300
C517        C  0.83381299  0.16581641  0.71043695     0.46500
H518        H  0.83349991  0.16597349  0.67638211    -0.02600
C519        C  0.83468425  0.16543454  0.79029456     0.46500
H520        H  0.83503259  0.16539408  0.82434731    -0.02600
C521        C  0.85592669  0.20445913  0.72945246    -0.16300
C522        C  0.79530069  0.14824066  0.72986176    -0.16000
C523        C  0.85090504  0.14478829  0.72864846    -0.16400
C524        C  0.85654948  0.20438365  0.77147011    -0.16400
C525        C  0.79580478  0.14825802  0.77184203    -0.15900
C526        C  0.85099315  0.14420677  0.77057556    -0.16300
C527        C  0.65907801  0.34008109  0.28843305     0.46500
H528        H  0.65827723  0.33829789  0.32230813    -0.02600
C529        C  0.65943171  0.34234389  0.20902887     0.46500
H530        H  0.65932431  0.34341324  0.17504169    -0.02600
C531        C  0.69814144  0.35796447  0.27018708    -0.16300
C532        C  0.63763229  0.30164627  0.26846416    -0.16000
C533        C  0.64242654  0.36200546  0.27097697    -0.16400
C534        C  0.69832933  0.35906070  0.22789953    -0.16400
C535        C  0.63689866  0.30284044  0.22626766    -0.15900
C536        C  0.64310405  0.36358303  0.22880879    -0.16300
O537        O  0.98815898  0.43152985  0.94691639    -0.77500
C538        C  0.58225448  0.04665221  0.93177728     0.83500
O539        O  0.52555199  0.48650840  0.08531532    -0.78600
O540        O  0.54207141  0.09613692  0.01918689    -0.80100
O541        O  0.93628904  0.00780382  0.94388449    -0.79900
O542        O  0.93475002  0.42951551  0.94151685    -0.78500
Zn543      Zn  0.51854334  0.47965473  0.98110254     1.55700
O544        O  0.99112898  0.05960242  0.93466893    -0.79900
Cd545      Cd  0.94377950  0.47302772  0.97899240     1.59700
Cd546      Cd  0.00276035  0.00596613  0.05889552     1.59600
O547        O  0.90690603  0.45187316  0.02784055    -0.79900
O548        O  0.00134597  0.00308362  0.99755435    -1.90400
Cd549      Cd  0.52279993  0.05591146  0.97355087     1.59900
O550        O  0.94316099  0.47424761  0.08312031    -0.79900
O551        O  0.56756582  0.06574387  0.93861142    -0.78500
C552        C  0.53687654  0.46717900  0.06812773     0.84000
C553        C  0.95527769  0.41666982  0.93332323     0.83700
O554        O  0.56864263  0.01409281  0.94615747    -0.77500
C555        C  0.95654988  0.03952615  0.92762367     0.84500
O556        O  0.53394932  0.46123642  0.02961966    -0.77600
C557        C  0.91127649  0.45575291  0.06657653     0.84600
C558        C  0.53983599  0.09418447  0.05819250     0.84900
O559        O  0.52473380  0.06348036  0.07733087    -0.80000
O560        O  0.56925821  0.01567560  0.55468887    -0.77500
C561        C  0.95422152  0.41560514  0.56614623     0.83500
O562        O  0.52004545  0.47748768  0.41842851    -0.78600
O563        O  0.90570914  0.45291016  0.47202687    -0.80100
O564        O  0.98497777  0.05953791  0.55391441    -0.79900
O565        O  0.56771914  0.06729031  0.56062255    -0.78500
Zn566      Zn  0.52219222  0.48208456  0.52159719     1.55700
O567        O  0.93457700  0.00329970  0.55976763    -0.79900
Cd568      Cd  0.52473232  0.05702199  0.52140625     1.59700
Cd569      Cd  0.99685215  0.99837775  0.43869689     1.59600
O570        O  0.54550098  0.09442603  0.47325779    -0.79900
O571        O  0.99734990  0.99878529  0.50008065    -1.90400
Cd572      Cd  0.94169493  0.47151905  0.52122640     1.59900
O573        O  0.53043970  0.06024240  0.41628795    -0.79900
O574        O  0.93236161  0.42537409  0.55284561    -0.78500
C575        C  0.53729489  0.46398583  0.43582120     0.84000
C576        C  0.58202602  0.04805654  0.56910895     0.83700
O577        O  0.98882134  0.43417065  0.55874671    -0.77500
C578        C  0.95256412  0.03786175  0.56770033     0.84500
O579        O  0.54104188  0.46462075  0.47463890    -0.77600
C580        C  0.54575985  0.09158151  0.43436760     0.84600
C581        C  0.90997571  0.45422936  0.43333173     0.84900
O582        O  0.94183353  0.47105794  0.41670415    -0.80000
C583        C  0.56026333  0.16304789  0.13077128     0.30800
C584        C  0.55614631  0.17746460  0.16765067    -0.35600
C585        C  0.58134594  0.21521790  0.17441175     0.16700
C586        C  0.60906965  0.23715543  0.14713868     0.22600
C587        C  0.61256039  0.22296711  0.10968156    -0.33700
C588        C  0.58701424  0.18526275  0.10262587     0.16600
O589        O  0.54051258  0.12824640  0.11894830    -0.25700
C590        C  0.55429539  0.12819599  0.08241464     0.06400
C591        C  0.58317335  0.16294008  0.07049345    -0.30600
O592        O  0.63146001  0.27087147  0.16132416    -0.22400
C593        C  0.61804414  0.27051701  0.19827913    -0.02400
C594        C  0.58597558  0.23693650  0.20729409    -0.16900
H595        H  0.53527233  0.16027432  0.18989842     0.21100
H596        H  0.63417137  0.23990537  0.08802769     0.19500
H597        H  0.59942095  0.17039580  0.04273103     0.19400
H598        H  0.56929769  0.22910583  0.23473511     0.15300
C599        C  0.78680777  0.40525084  0.18276507     0.30800
C600        C  0.82519749  0.42966742  0.18126724    -0.35600
C601        C  0.84253265  0.42957448  0.14479862     0.16700
C602        C  0.82337476  0.40732603  0.11182158     0.22600
C603        C  0.78500529  0.38245791  0.11360745    -0.33700
C604        C  0.76772238  0.38231703  0.15027668     0.16600
O605        O  0.76513850  0.40081621  0.21385996    -0.25700
C606        C  0.73175040  0.37409890  0.20170766     0.06400
C607        C  0.73169493  0.36182096  0.16210975    -0.30600
O608        O  0.84494562  0.41310594  0.08005007    -0.22400
C609        C  0.87840900  0.43905680  0.09306367    -0.02400
C610        C  0.87857657  0.45013715  0.13321228    -0.16900
H611        H  0.84046811  0.44759533  0.20673739     0.21100
H612        H  0.76966169  0.36466711  0.08808575     0.19500
H613        H  0.70865622  0.34035762  0.14481506     0.19400
H614        H  0.90171070  0.47123057  0.15075569     0.15300
C615        C  0.60337205  0.39241309  0.15417223     0.30800
C616        C  0.58386015  0.38921393  0.11811997    -0.35600
C617        C  0.57461264  0.41618117  0.11214617     0.16700
C618        C  0.58362860  0.44426094  0.13984504     0.22600
C619        C  0.60403713  0.44802601  0.17540556    -0.33700
C620        C  0.61354331  0.42117137  0.18120674     0.16600
O621        O  0.61298991  0.36907640  0.16696954    -0.25700
C622        C  0.62938162  0.38282308  0.20288375     0.06400
C623        C  0.63164489  0.41600063  0.21251661    -0.30600
O624        O  0.57103790  0.46566309  0.12866461    -0.22400
C625        C  0.55420243  0.45133335  0.09306789    -0.02400
C626        C  0.55572966  0.42064439  0.08124886    -0.16900
H627        H  0.57584924  0.36685733  0.09658448     0.21100
H628        H  0.61143778  0.46995857  0.19735357     0.19500
H629        H  0.64414114  0.43347903  0.23908246     0.19400
H630        H  0.54427162  0.40389309  0.05397602     0.15300
C631        C  0.58937719  0.16243400  0.36093778     0.30800
C632        C  0.60492160  0.17844135  0.32285412    -0.35600
C633        C  0.61294372  0.21471351  0.31667892     0.16700
C634        C  0.60612837  0.23390541  0.34584104     0.22600
C635        C  0.59200208  0.21849719  0.38446618    -0.33700
C636        C  0.58401863  0.18228143  0.39068798     0.16600
O637        O  0.57693237  0.12788656  0.37215306    -0.25700
C638        C  0.56396543  0.12583434  0.40982137     0.06400
C639        C  0.56806611  0.15897575  0.42303540    -0.30600
O640        O  0.61342944  0.26646733  0.33260003    -0.22400
C641        C  0.62482780  0.26818166  0.29424420    -0.02400
C642        C  0.62630050  0.23719039  0.28329265    -0.16900
H643        H  0.60925057  0.16325175  0.29916969     0.21100
H644        H  0.58647386  0.23325576  0.40758403     0.19500
H645        H  0.55901095  0.16451874  0.45163766     0.19400
H646        H  0.63579820  0.23184579  0.25490406     0.15300
C647        C  0.82170367  0.41264503  0.38984803     0.30800
C648        C  0.78430098  0.40152053  0.38846790    -0.35600
C649        C  0.76656179  0.38817692  0.35068622     0.16700
C650        C  0.78404142  0.38510327  0.31678254     0.22600
C651        C  0.82153369  0.39611416  0.31814170    -0.33700
C652        C  0.83960950  0.41035580  0.35576484     0.16600
O653        O  0.84393428  0.42776514  0.42149723    -0.25700
C654        C  0.87670717  0.43582675  0.40750396     0.06400
C655        C  0.87576056  0.42559706  0.36677292    -0.30600
O656        O  0.76239143  0.37333932  0.28422708    -0.22400
C657        C  0.73087924  0.36967050  0.29709104    -0.02400
C658        C  0.73193715  0.37814703  0.33847584    -0.16900
H659        H  0.77033417  0.40426050  0.41466905     0.21100
H660        H  0.83587981  0.39489115  0.29139980     0.19500
H661        H  0.89841788  0.42922956  0.34801472     0.19400
H662        H  0.71092929  0.37843480  0.35682075     0.15300
C663        C  0.59176535  0.39660179  0.31817145     0.30800
C664        C  0.56609122  0.40789707  0.32023789    -0.35600
C665        C  0.56437765  0.42317832  0.35764334     0.16700
C666        C  0.58610921  0.42676334  0.39095865     0.22600
C667        C  0.61218032  0.41591087  0.38865270    -0.33700
C668        C  0.61413768  0.40094059  0.35105396     0.16600
O669        O  0.59811062  0.38185683  0.28611326    -0.25700
C670        C  0.62554337  0.37739699  0.29808786     0.06400
C671        C  0.63632121  0.38847300  0.33847373    -0.30600
O672        O  0.57937816  0.44122162  0.42314100    -0.22400
C673        C  0.55325652  0.44729951  0.41006057    -0.02400
C674        C  0.54301810  0.43675028  0.36950689    -0.16900
H675        H  0.54875580  0.40509360  0.29441257     0.21100
H676        H  0.62976035  0.41899160  0.41433192     0.19500
H677        H  0.65784672  0.38813211  0.35588316     0.19400
H678        H  0.52256049  0.43856723  0.35152313     0.15300
C679        C  0.90117142  0.06609099  0.87759536     0.30800
C680        C  0.87077085  0.07034936  0.87280398    -0.35600
C681        C  0.87320656  0.09349188  0.84071551     0.16700
C682        C  0.90299139  0.11041707  0.81440886     0.22600
C683        C  0.93354030  0.10644000  0.81940466    -0.33700
C684        C  0.93153929  0.08408253  0.85217882     0.16600
O685        O  0.90547234  0.04709643  0.90670859    -0.25700
C686        C  0.93928584  0.05361725  0.90030091     0.06400
C687        C  0.95684813  0.07642035  0.86682776    -0.30600
O688        O  0.89917534  0.13038021  0.78615862    -0.22400
C689        C  0.86679112  0.12656339  0.79491602    -0.02400
C690        C  0.84955095  0.10428294  0.82875626    -0.16900
H691        H  0.84724055  0.05716892  0.89316597     0.21100
H692        H  0.95743951  0.12034174  0.79962551     0.19500
H693        H  0.98438855  0.08627646  0.85541447     0.19400
H694        H  0.82326926  0.09675936  0.84217951     0.15300
C695        C  0.90520164  0.27910329  0.83896607     0.30800
C696        C  0.93134247  0.30074820  0.86902320    -0.35600
C697        C  0.93221117  0.33303765  0.88068280     0.16700
C698        C  0.90869870  0.34312247  0.86432547     0.22600
C699        C  0.88306849  0.32186733  0.83374405    -0.33700
C700        C  0.88246580  0.28981860  0.82178411     0.16600
O701        O  0.89901988  0.24743056  0.82402984    -0.25700
C702        C  0.87236628  0.23816430  0.79659502     0.06400
C703        C  0.86103570  0.26347170  0.79381403    -0.30600
O704        O  0.91341062  0.37370944  0.88075412    -0.22400
C705        C  0.94066652  0.38360553  0.90753746    -0.02400
C706        C  0.95358279  0.35947194  0.90868003    -0.16900
H707        H  0.94952148  0.29285640  0.88255783     0.21100
H708        H  0.86468727  0.32960607  0.82044629     0.19500
H709        H  0.83983759  0.26230831  0.77424140     0.19400
H710        H  0.97509815  0.36089658  0.92790981     0.15300
C711        C  0.66399073  0.07120504  0.87894888     0.30800
C712        C  0.69394334  0.06824761  0.86634562    -0.35600
C713        C  0.71900607  0.09580171  0.83944968     0.16700
C714        C  0.71475209  0.12414638  0.82555426     0.22600
C715        C  0.68502819  0.12731191  0.83844802    -0.33700
C716        C  0.66015516  0.09994548  0.86560223     0.16600
O717        O  0.63707658  0.04838509  0.90377757    -0.25700
C718        C  0.61590987  0.06290568  0.90657224     0.06400
C719        C  0.62902409  0.09503656  0.88355950    -0.30600
O720        O  0.74103679  0.14638772  0.79986082    -0.22400
C721        C  0.76245590  0.13217589  0.79754406    -0.02400
C722        C  0.75028074  0.10088067  0.82160941    -0.16900
H723        H  0.69742911  0.04598304  0.87670029     0.21100
H724        H  0.68146957  0.14949492  0.82794447     0.19500
H725        H  0.61714145  0.11212812  0.88033750     0.19400
H726        H  0.76231000  0.08394699  0.82476400     0.15300
C727        C  0.87504328  0.08850358  0.67551311     0.30800
C728        C  0.87233185  0.05542247  0.66321529    -0.35600
C729        C  0.89897284  0.05901775  0.63504623     0.16700
C730        C  0.92662827  0.09286305  0.62040166     0.22600
C731        C  0.92901625  0.12586309  0.63222923    -0.33700
C732        C  0.90212799  0.12223198  0.65994451     0.16600
O733        O  0.85341164  0.09173358  0.70195692    -0.25700
C734        C  0.86657450  0.12792393  0.70274006     0.06400
C735        C  0.89668793  0.14824042  0.67715290    -0.30600
O736        O  0.94913391  0.08990117  0.59511684    -0.22400
C737        C  0.93555922  0.05364846  0.59315722    -0.02400
C738        C  0.90423169  0.03303430  0.61723097    -0.16900
H739        H  0.85103584  0.02878400  0.67487952     0.21100
H740        H  0.95040118  0.15252578  0.62068702     0.19500
H741        H  0.91255248  0.17790133  0.67255068     0.19400
H742        H  0.88801862  0.00333051  0.62132855     0.15300
C743        C  0.87807463  0.27473189  0.65825611     0.30800
C744        C  0.87149633  0.29201598  0.62559212    -0.35600
C745        C  0.90061324  0.32760459  0.61562164     0.18900
C746        C  0.93412740  0.34478844  0.63592229     0.22600
C747        C  0.94047150  0.32771897  0.66907630    -0.33700
C748        C  0.91115101  0.29230297  0.67941315     0.16600
O749        O  0.85469176  0.24148200  0.67266706    -0.25700
C750        C  0.87275573  0.23796290  0.70387509     0.06400
C751        C  0.90807726  0.26863832  0.70952120    -0.30600
O752        O  0.95774748  0.37777000  0.62082217    -0.22400
C753        C  0.93886722  0.38190939  0.59093243    -0.02400
C754        C  0.90311498  0.35169294  0.58641553    -0.16900
H755        H  0.84548914  0.27868041  0.60918480     0.21100
H756        H  0.96640111  0.34111313  0.68564450     0.19500
H757        H  0.92844483  0.27275333  0.73232476     0.19400
H758        H  0.88221524  0.34797372  0.56456537     0.15300
C759        C  0.66518442  0.07497074  0.61954554     0.30800
C760        C  0.69879010  0.07687628  0.62617603    -0.35600
C761        C  0.72065862  0.09988424  0.65828972     0.16700
C762        C  0.70986605  0.11906609  0.68282996     0.22600
C763        C  0.67644717  0.11754744  0.67585530    -0.33700
C764        C  0.65491741  0.09514806  0.64311130     0.16600
O765        O  0.64069021  0.05541432  0.59095257    -0.25700
C766        C  0.61470232  0.06366708  0.59572083     0.06400
C767        C  0.62209309  0.08837908  0.62759303    -0.30600
O768        O  0.73436490  0.13838113  0.71156803    -0.22400
C769        C  0.76133213  0.13181233  0.70492577    -0.02400
C770        C  0.75448042  0.10831868  0.67202388    -0.16900
H771        H  0.70740862  0.06171550  0.60739346     0.21100
H772        H  0.66799363  0.13296610  0.69442318     0.19500
H773        H  0.60555472  0.09942264  0.63793937     0.19400
H774        H  0.77174993  0.09856657  0.66036873     0.15300
C775        C  0.83131537  0.66719041  0.71269701     0.46500
H776        H  0.83133425  0.66793331  0.67864876    -0.02600
C777        C  0.83098465  0.66476511  0.79247143     0.46500
H778        H  0.83093711  0.66396783  0.82652051    -0.02600
C779        C  0.85421959  0.70530070  0.73262023    -0.16300
C780        C  0.79263190  0.64992192  0.73153738    -0.16000
C781        C  0.84715235  0.64474412  0.73055170    -0.16400
C782        C  0.85404420  0.70408409  0.77460011    -0.16400
C783        C  0.79244881  0.64834323  0.77349517    -0.15900
C784        C  0.84662579  0.64326878  0.77244077    -0.16300
C785        C  0.66229922  0.83874704  0.28683266     0.46500
H786        H  0.66122162  0.83628203  0.32068407    -0.02600
C787        C  0.66374877  0.84283885  0.20752666     0.46500
H788        H  0.66374448  0.84444168  0.17360378    -0.02600
C789        C  0.70152899  0.85696000  0.26897566    -0.16300
C790        C  0.64035979  0.80082478  0.26593426    -0.16000
C791        C  0.64620951  0.86127433  0.27002627    -0.16400
C792        C  0.70245413  0.85899033  0.22667816    -0.16400
C793        C  0.64053584  0.80306732  0.22382925    -0.15900
C794        C  0.64747316  0.86393769  0.22786654    -0.16300
O795        O  0.99173995  0.93307657  0.94562914    -0.77500
C796        C  0.57824166  0.54567227  0.93237834     0.83500
O797        O  0.52898105  0.98569140  0.08371882    -0.78600
O798        O  0.53863262  0.59522371  0.01945779    -0.80100
O799        O  0.93251109  0.50765741  0.94525248    -0.79900
O800        O  0.93764343  0.92983152  0.94434443    -0.78500
Zn801      Zn  0.52280562  0.98022136  0.97984169     1.55700
O802        O  0.98699714  0.56069811  0.94191229    -0.79900
Cd803      Cd  0.94845271  0.97503504  0.97931695     1.59700
Cd804      Cd  0.99660757  0.50299075  0.06039782     1.59600
O805        O  0.91270648  0.95572133  0.02865490    -0.79900
O806        O  0.99620041  0.50052393  0.99917973    -1.90400
Cd807      Cd  0.51943693  0.55499049  0.97455164     1.59900
O808        O  0.94959480  0.97726356  0.08342595    -0.79900
O809        O  0.56355654  0.56480157  0.93866161    -0.78500
C810        C  0.54073652  0.96676787  0.06652506     0.84000
C811        C  0.95807003  0.91728523  0.93455511     0.83700
O812        O  0.56490128  0.51352723  0.94781824    -0.77500
C813        C  0.95281115  0.54096922  0.93296653     0.84500
O814        O  0.53854407  0.96159899  0.02792204    -0.77600
C815        C  0.91746933  0.95926481  0.06729684     0.84600
C816        C  0.53527106  0.59388364  0.05830506     0.84900
O817        O  0.51939305  0.56353125  0.07818712    -0.80000
O818        O  0.56582737  0.51654899  0.55722722    -0.77500
C819        C  0.95883371  0.91509545  0.56557825     0.83500
O820        O  0.52656815  0.97900114  0.41641729    -0.78600
O821        O  0.90810471  0.95430357  0.47295988    -0.80100
O822        O  0.97837642  0.55940175  0.55415265    -0.79900
O823        O  0.57059437  0.57146357  0.55363066    -0.78500
Zn824      Zn  0.52574354  0.98074750  0.51936687     1.55700
O825        O  0.92844578  0.50259026  0.55882072    -0.79900
Cd826      Cd  0.52332625  0.55931412  0.52121822     1.59700
Cd827      Cd  0.99495078  0.50062991  0.44106695     1.59600
O828        O  0.53903594  0.59484717  0.47196719    -0.79900
O829        O  0.99421584  0.50063790  0.50237421    -1.90400
Cd830      Cd  0.94551898  0.97111039  0.52100887     1.59900
O831        O  0.52379471  0.55864106  0.41674928    -0.79900
O832        O  0.93683724  0.92488922  0.55255242    -0.78500
C833        C  0.54282732  0.96458486  0.43412011     0.84000
C834        C  0.58235067  0.55086141  0.56596596     0.83700
O835        O  0.99326509  0.93336046  0.55731378    -0.77500
C836        C  0.94570821  0.53710893  0.56689826     0.84500
O837        O  0.54531460  0.96409079  0.47295647    -0.77600
C838        C  0.53798070  0.59048836  0.43328807     0.84600
C839        C  0.91191179  0.95649656  0.43416049     0.84900
O840        O  0.94343474  0.97219015  0.41694362    -0.80000
C841        C  0.55596738  0.66527827  0.12710202     0.30800
C842        C  0.55203213  0.68128218  0.16275397    -0.35600
C843        C  0.57992711  0.71808214  0.17010365     0.16700
C844        C  0.60984440  0.73766472  0.14446856     0.22600
C845        C  0.61307533  0.72209333  0.10801393    -0.33700
C846        C  0.58497524  0.68537351  0.10042411     0.16600
O847        O  0.53463441  0.63048691  0.11581935    -0.25700
C848        C  0.54981085  0.62847802  0.08111161     0.06400
C849        C  0.58094840  0.66183037  0.06973223    -0.30600
O850        O  0.63451354  0.77032968  0.15947324    -0.22400
C851        C  0.62028171  0.77159341  0.19526461    -0.02400
C852        C  0.58565488  0.74038265  0.20267898    -0.16900
H853        H  0.52957254  0.66573108  0.18401864     0.21100
H854        H  0.63651673  0.73705691  0.08780337     0.19500
H855        H  0.59882300  0.66739274  0.04365874     0.19400
H856        H  0.56802431  0.73425340  0.22909759     0.15300
C857        C  0.79210717  0.90566405  0.18322564     0.30800
C858        C  0.83086709  0.92783290  0.18327144    -0.35600
C859        C  0.84834846  0.93027005  0.14593211     0.16700
C860        C  0.82894400  0.91244406  0.11088376     0.22600
C861        C  0.79023650  0.88987666  0.11104910    -0.33700
C862        C  0.77282832  0.88714332  0.14850261     0.16600
O863        O  0.77022165  0.89920945  0.21478294    -0.25700
C864        C  0.73641085  0.87542228  0.20070156     0.06400
C865        C  0.73648201  0.86732373  0.15930042    -0.30600
O866        O  0.85067633  0.91979326  0.07893385    -0.22400
C867        C  0.88451692  0.94237534  0.09369875    -0.02400
C868        C  0.88478896  0.94965442  0.13532306    -0.16900
H869        H  0.84629984  0.94217860  0.21053460     0.21100
H870        H  0.77476029  0.87553019  0.08381666     0.19500
H871        H  0.71336083  0.84873925  0.14001345     0.19400
H872        H  0.90828628  0.96755008  0.15456962     0.15300
C873        C  0.60907944  0.89374491  0.15270006     0.30800
C874        C  0.59112703  0.89136475  0.11566098    -0.35600
C875        C  0.57996041  0.91695206  0.11037607     0.16700
C876        C  0.58579260  0.94297580  0.13961482     0.22600
C877        C  0.60468581  0.94599906  0.17621678    -0.33700
C878        C  0.61614223  0.92056622  0.18132130     0.16600
O879        O  0.61981743  0.87117747  0.16501128    -0.25700
C880        C  0.63384635  0.88344420  0.20219167     0.06400
C881        C  0.63358337  0.91511336  0.21315685    -0.30600
O882        O  0.57213607  0.96349432  0.12864269    -0.22400
C883        C  0.55783421  0.95074741  0.09164967    -0.02400
C884        C  0.56199600  0.92185026  0.07873388    -0.16900
H885        H  0.58565978  0.87057612  0.09285814     0.21100
H886        H  0.60960516  0.96636083  0.19935784     0.19500
H887        H  0.64413638  0.93154418  0.24074495     0.19400
H888        H  0.55298971  0.90663632  0.05019733     0.15300
C889        C  0.57650282  0.65812362  0.35637491     0.30800
C890        C  0.59227040  0.67324795  0.31815615    -0.35600
C891        C  0.60334003  0.71041521  0.31205204     0.16700
C892        C  0.59863714  0.73113711  0.34116640     0.22600
C893        C  0.58334994  0.71619573  0.37963230    -0.33700
C894        C  0.57285738  0.67920882  0.38601236     0.16600
O895        O  0.56444662  0.62400667  0.36874607    -0.25700
C896        C  0.55344966  0.62343055  0.40701561     0.06400
C897        C  0.55816357  0.65702885  0.41944747    -0.30600
O898        O  0.61062491  0.76520103  0.32868777    -0.22400
C899        C  0.62305502  0.76638464  0.29092963    -0.02400
C900        C  0.62015702  0.73327130  0.27957212    -0.16900
H901        H  0.59587772  0.65723155  0.29489194     0.21100
H902        H  0.58010540  0.73234233  0.40303917     0.19500
H903        H  0.55143542  0.66393247  0.44875202     0.19400
H904        H  0.62952018  0.72695511  0.25171015     0.15300
C905        C  0.82441820  0.91836775  0.38959287     0.30800
C906        C  0.78709664  0.90747459  0.38732237    -0.35600
C907        C  0.76948782  0.89221070  0.34988970     0.16700
C908        C  0.78705562  0.88731289  0.31727542     0.22600
C909        C  0.82443706  0.89847704  0.31936628    -0.33700
C910        C  0.84228292  0.91442400  0.35648992     0.16600
O911        O  0.84640507  0.93359713  0.42145516    -0.25700
C912        C  0.87883656  0.93994190  0.40829140     0.06400
C913        C  0.87798558  0.92878105  0.36807598    -0.30600
O914        O  0.76545843  0.87324304  0.28500589    -0.22400
C915        C  0.73390968  0.87004676  0.29651294    -0.02400
C916        C  0.73477581  0.88096248  0.33693044    -0.16900
H917        H  0.77296688  0.91118909  0.41268125     0.21100
H918        H  0.83875411  0.89559852  0.29361082     0.19500
H919        H  0.90032458  0.93054266  0.35025647     0.19400
H920        H  0.71355647  0.88186199  0.35408182     0.15300
C921        C  0.59447368  0.89373923  0.31838439     0.30800
C922        C  0.56919164  0.90544280  0.32033023    -0.35600
C923        C  0.56820491  0.92152076  0.35736307     0.16700
C924        C  0.59001466  0.92519997  0.39064340     0.22600
C925        C  0.61556384  0.91367167  0.38858020    -0.33700
C926        C  0.61701564  0.89818512  0.35114132     0.16600
O927        O  0.60092258  0.87937168  0.28612503    -0.25700
C928        C  0.62872301  0.87546145  0.29772702     0.06400
C929        C  0.63941819  0.88614466  0.33822375    -0.30600
O930        O  0.58409909  0.94076197  0.42234472    -0.22400
C931        C  0.55854618  0.94751043  0.40882369    -0.02400
C932        C  0.54780374  0.93626588  0.36860166    -0.16900
H933        H  0.55196288  0.90281551  0.29447103     0.21100
H934        H  0.63342423  0.91705583  0.41408978     0.19500
H935        H  0.66123201  0.88621833  0.35539158     0.19400
H936        H  0.52753550  0.93827972  0.35047465     0.15300
C937        C  0.89700998  0.56499717  0.87878081     0.30800
C938        C  0.86394447  0.56118810  0.86467539    -0.35600
C939        C  0.86772492  0.58911727  0.83832800     0.16700
C940        C  0.90168162  0.61864432  0.82654324     0.22600
C941        C  0.93468500  0.62273597  0.84110898    -0.33700
C942        C  0.93089739  0.59490852  0.86754151     0.16600
O943        O  0.90006492  0.54185810  0.90310265    -0.25700
C944        C  0.93636983  0.55736055  0.90769206     0.06400
C945        C  0.95689610  0.59046214  0.88638270    -0.30600
O946        O  0.89880037  0.64120775  0.80120669    -0.22400
C947        C  0.86257317  0.62594797  0.79686957    -0.02400
C948        C  0.84179792  0.59369988  0.81937194    -0.16900
H949        H  0.83720443  0.53800818  0.87342238     0.21100
H950        H  0.96142340  0.64587013  0.83227019     0.19500
H951        H  0.98663482  0.60839081  0.88471612     0.19400
H952        H  0.81205891  0.57618350  0.82123520     0.15300
C953        C  0.90726527  0.78120189  0.83720536     0.30800
C954        C  0.93850189  0.80748010  0.85918278    -0.35600
C955        C  0.93584029  0.83580148  0.87777258     0.16700
C956        C  0.90454393  0.83796078  0.87522414     0.22600
C957        C  0.87331658  0.81166091  0.85337277    -0.33700
C958        C  0.87606093  0.78353746  0.83454208     0.16600
O959        O  0.90383115  0.75277993  0.81669703    -0.25700
C960        C  0.87010610  0.73704888  0.80069414     0.06400
C961        C  0.85150661  0.75479856  0.81076615    -0.30600
O962        O  0.90814276  0.86683365  0.89478686    -0.22400
C963        C  0.94223519  0.88345473  0.90993263    -0.02400
C964        C  0.96079914  0.86542406  0.90031809    -0.16900
H965        H  0.96322081  0.80615113  0.86130275     0.21100
H966        H  0.84873784  0.81320636  0.85091286     0.19500
H967        H  0.82402597  0.74762166  0.80156879     0.19400
H968        H  0.98857019  0.87303599  0.90878926     0.15300
C969        C  0.66046193  0.57072804  0.88038620     0.30800
C970        C  0.69251620  0.57030536  0.87108587    -0.35600
C971        C  0.71608450  0.59618941  0.84184178     0.16700
C972        C  0.70822804  0.62020575  0.82229690     0.22600
C973        C  0.67635965  0.62081976  0.83180002    -0.33700
C974        C  0.65323897  0.59553730  0.86170513     0.16600
O975        O  0.63491683  0.54948136  0.90737802    -0.25700
C976        C  0.61133195  0.56122903  0.90633403     0.06400
C977        C  0.62142081  0.58989131  0.87856458    -0.30600
O978        O  0.73383963  0.64169218  0.79558482    -0.22400
C979        C  0.75868811  0.63170868  0.79861798    -0.02400
C980        C  0.74925752  0.60370851  0.82700165    -0.16900
H981        H  0.69887880  0.55145831  0.88598816     0.21100
H982        H  0.67023756  0.63997610  0.81723871     0.19500
H983        H  0.60726540  0.60437701  0.87176551     0.19400
H984        H  0.76439004  0.59050490  0.83502659     0.15300
C985        C  0.87141747  0.58824185  0.67849927     0.30800
C986        C  0.86999663  0.55536824  0.66817292    -0.35600
C987        C  0.89369793  0.55814109  0.63657525     0.16700
C988        C  0.91756950  0.59113629  0.61710125     0.22600
C989        C  0.91850255  0.62379014  0.62690173    -0.33700
C990        C  0.89441741  0.62088304  0.65793114     0.16600
O991        O  0.85200295  0.59220971  0.70728616    -0.25700
C992        C  0.86238785  0.62767281  0.70449221     0.06400
C993        C  0.88849907  0.64681790  0.67426888    -0.30600
O994        O  0.93862116  0.58791853  0.58996924    -0.22400
C995        C  0.92779864  0.55230036  0.59154794    -0.02400
C996        C  0.89967352  0.53227374  0.61975219    -0.16900
H997        H  0.85186855  0.52954250  0.68380594     0.21100
H998        H  0.93691198  0.64971799  0.61157370     0.19500
H999        H  0.90148437  0.67573049  0.66601310     0.19400
H1000       H  0.88653820  0.50328092  0.62764242     0.15300
C1001       C  0.88006567  0.77551863  0.66003527     0.30800
C1002       C  0.87433529  0.79309043  0.62705873    -0.35600
C1003       C  0.90457194  0.82752235  0.61575975     0.18900
C1004       C  0.93862143  0.84331219  0.63470420     0.22600
C1005       C  0.94439140  0.82566389  0.66790883    -0.33700
C1006       C  0.91365556  0.79153340  0.68005823     0.16600
O1007       O  0.85512109  0.74355223  0.67602620    -0.25700
C1008       C  0.87248363  0.73919266  0.70737794     0.06400
C1009       C  0.90908263  0.76811502  0.71142816    -0.30600
O1010       O  0.96280465  0.87604960  0.61914240    -0.22400
C1011       C  0.94360236  0.88131230  0.59045309    -0.02400
C1012       C  0.90728532  0.85205922  0.58709940    -0.16900
H1013       H  0.84784247  0.78108403  0.61182743     0.21100
H1014       H  0.97066298  0.83802919  0.68370121     0.19500
H1015       H  0.92940145  0.77105528  0.73366017     0.19400
H1016       H  0.88593806  0.84942555  0.56663415     0.15300
C1017       C  0.65379174  0.57166238  0.63523908     0.30800
C1018       C  0.67120900  0.56514494  0.66787185    -0.35600
C1019       C  0.70578820  0.59511045  0.67957366     0.16700
C1020       C  0.72257693  0.62892753  0.65992363     0.22600
C1021       C  0.70499206  0.63557170  0.62752008    -0.33700
C1022       C  0.66996440  0.60584179  0.61644926     0.16600
O1023       O  0.62112740  0.54769313  0.61967950    -0.25700
C1024       C  0.61598644  0.56697484  0.59109861     0.06400
C1025       C  0.64538939  0.60333303  0.58776330    -0.30600
O1026       O  0.75534486  0.65274607  0.67543414    -0.22400
C1027       C  0.75912713  0.63411105  0.70590924    -0.02400
C1028       C  0.72921781  0.59813533  0.70989444    -0.16900
H1029       H  0.65853204  0.53868294  0.68331337     0.21100
H1030       H  0.71756235  0.66212669  0.61229659     0.19500
H1031       H  0.64828272  0.62461894  0.56700699     0.19400
H1032       H  0.72563562  0.57714989  0.73154263     0.15300
loop_ 
_geom_bond_atom_site_label_1 
_geom_bond_atom_site_label_2 
_geom_bond_distance 
_geom_bond_site_symmetry_2 
_ccdc_geom_bond_type 
C1            H2   1.112       .  S
C1            C7   1.526       .  S
C1            C6   1.538       .  S
C1            C5   1.534       .  S
C3            H4   1.111       .  S
C3            C9   1.528       .  S
C3            C8   1.536       .  S
C3           C10   1.547       .  S
C5            C8   1.368       .  D
C5          C234   1.467       .  S
C6            C9   1.368       .  D
C6          C253   1.470       .  S
C7           C10   1.373       .  D
C7          C218   1.473       .  S
C8          C186   1.476       .  S
C9          C205   1.468       .  S
C10         C173   1.479       .  S
C11          H12   1.108       .  S
C11          C17   1.538       .  S
C11          C16   1.538       .  S
C11          C15   1.540       .  S
C13          H14   1.110       .  S
C13          C19   1.530       .  S
C13          C18   1.543       .  S
C13          C20   1.534       .  S
C15          C18   1.383       .  D
C15         C141   1.494       .  S
C16          C19   1.377       .  D
C16         C125   1.482       .  S
C17          C20   1.376       .  D
C17         C154   1.482       .  S
C18          C90   1.487       .  S
C19          C77   1.481       .  S
C20         C106   1.483       .  S
O21          C37   1.276       .  A
O21        Zn543   2.022       .  S
C22          O38   1.275       .  A
C22          O35   1.272       .  A
C22         C202   1.469       .  S
O23          C36   1.276       .  A
O23        Cd804   2.085   1_455  S
O24          C42   1.275       .  A
O24         Cd33   2.077   1_554  S
O25          C39   1.276       .  A
O25        Cd287   2.091   1_545  S
O26          C37   1.274       .  A
O26         Cd29   2.072       .  S
Zn27         O40   2.009   1_556  S
Zn27        O537   2.009   1_455  S
Zn27        O296   2.041       .  S
Zn27        O806   1.948   1_455  S
O28          C39   1.276       .  A
O28        Cd549   2.078       .  S
Cd29         O31   2.065   1_556  S
Cd29        O283   2.086       .  S
Cd29        O290   2.004       .  S
Cd30        O797   2.089   1_545  S
Cd30        O292   2.079   1_545  S
Cd30        O559   2.065       .  S
Cd30         O32   2.005   1_554  S
O31          C41   1.273       .  A
O32        Zn801   1.948   1_545  S
O32        Cd287   2.006   1_545  S
O32        Cd549   2.001       .  S
Cd33         O35   2.056       .  S
Cd33        O544   2.073   1_455  S
Cd33        O548   2.000       .  S
O34          C41   1.276       .  A
O34        Cd288   2.088       .  S
C36          O40   1.273       .  A
C36         C109   1.469       .  S
C37         C189   1.468       .  S
O38        Zn285   2.038   1_545  S
C39         C170   1.473       .  S
C41          C93   1.471       .  S
C42          O43   1.275       .  A
C42          C74   1.468       .  S
O43        Cd546   2.074       .  S
O44          C60   1.274       .  A
O44        Zn308   2.021   1_545  S
C45          O61   1.273       .  A
C45          O58   1.273       .  A
C45         C237   1.460       .  S
O46          C59   1.272       .  A
O46        Cd827   2.053   1_455  S
O47          C65   1.276       .  A
O47         Cd56   2.083       .  S
O48          C62   1.274       .  A
O48        Cd568   2.079       .  S
O49          C60   1.274       .  A
O49         Cd52   2.068       .  S
Zn50         O63   2.040       .  S
Zn50        O302   2.016       .  S
Zn50        O577   2.036   1_455  S
Zn50        O829   1.952   1_455  S
O51          C62   1.274       .  A
O51        Cd314   2.079   1_545  S
Cd52         O54   2.054       .  S
Cd52        O564   2.069   1_455  S
Cd52        O571   1.992   1_445  S
Cd53        O820   2.068   1_545  S
Cd53        O573   2.095       .  S
Cd53        O324   2.083   1_545  S
Cd53         O55   2.008       .  S
O54          C64   1.273       .  A
O55        Zn824   1.956   1_545  S
O55        Cd568   2.003       .  S
O55        Cd314   2.003   1_545  S
Cd56         O58   2.062       .  S
Cd56        O309   2.063       .  S
Cd56        O313   2.005       .  S
O57          C64   1.275       .  A
O57        Cd569   2.076   1_445  S
C59          O63   1.275       .  A
C59         C157   1.469       .  S
C60         C250   1.467       .  S
O61        Zn566   2.011       .  S
C62         C221   1.475       .  S
C64         C122   1.464       .  S
C65          O66   1.275       .  A
C65         C138   1.472       .  S
O66        Cd311   2.070       .  S
C67          C72   1.381       .  A
C67          C68   1.403       .  A
C67          O73   1.317       .  A
C68          C69   1.401       .  A
C68          H79   1.082       .  S
C69          C78   1.360       .  A
C69          C70   1.379       .  A
C70          C71   1.404       .  A
C70          O76   1.318       .  A
C71          C72   1.403       .  A
C71          H80   1.082       .  S
C72          C75   1.363       .  A
O73          C74   1.330       .  A
C74          C75   1.391       .  A
C75          H81   1.082       .  S
O76          C77   1.330       .  A
C77          C78   1.393       .  A
C78          H82   1.082       .  S
C83          C88   1.379       .  A
C83          C84   1.403       .  A
C83          O89   1.317       .  A
C84          C85   1.402       .  A
C84          H95   1.083       .  S
C85          C94   1.364       .  A
C85          C86   1.380       .  A
C86          C87   1.404       .  A
C86          O92   1.318       .  A
C87          C88   1.403       .  A
C87          H96   1.083       .  S
C88          C91   1.363       .  A
O89          C90   1.330       .  A
C90          C91   1.394       .  A
C91          H97   1.082       .  S
O92          C93   1.331       .  A
C93          C94   1.391       .  A
C94          H98   1.083       .  S
C99         C104   1.379       .  A
C99         C100   1.404       .  A
C99         O105   1.319       .  A
C100        C101   1.404       .  A
C100        H111   1.083       .  S
C101        C110   1.361       .  A
C101        C102   1.381       .  A
C102        C103   1.403       .  A
C102        O108   1.319       .  A
C103        C104   1.402       .  A
C103        H112   1.082       .  S
C104        C107   1.360       .  A
O105        C106   1.332       .  A
C106        C107   1.392       .  A
C107        H113   1.082       .  S
O108        C109   1.330       .  A
C109        C110   1.392       .  A
C110        H114   1.083       .  S
C115        C120   1.381       .  A
C115        C116   1.402       .  A
C115        O121   1.320       .  A
C116        C117   1.403       .  A
C116        H127   1.083       .  S
C117        C126   1.358       .  A
C117        C118   1.379       .  A
C118        C119   1.400       .  A
C118        O124   1.317       .  A
C119        C120   1.400       .  A
C119        H128   1.082       .  S
C120        C123   1.356       .  A
O121        C122   1.330       .  A
C122        C123   1.389       .  A
C123        H129   1.082       .  S
O124        C125   1.330       .  A
C125        C126   1.394       .  A
C126        H130   1.082       .  S
C131        C136   1.380       .  A
C131        C132   1.403       .  A
C131        O137   1.320       .  A
C132        C133   1.403       .  A
C132        H143   1.082       .  S
C133        C142   1.360       .  A
C133        C134   1.377       .  A
C134        C135   1.404       .  A
C134        O140   1.319       .  A
C135        C136   1.404       .  A
C135        H144   1.082       .  S
C136        C139   1.362       .  A
O137        C138   1.331       .  A
C138        C139   1.392       .  A
C139        H145   1.082       .  S
O140        C141   1.331       .  A
C141        C142   1.395       .  A
C142        H146   1.080       .  S
C147        C152   1.380       .  A
C147        C148   1.401       .  A
C147        O153   1.317       .  A
C148        C149   1.401       .  A
C148        H159   1.083       .  S
C149        C158   1.357       .  A
C149        C150   1.381       .  A
C150        C151   1.404       .  A
C150        O156   1.322       .  A
C151        C152   1.404       .  A
C151        H160   1.083       .  S
C152        C155   1.361       .  A
O153        C154   1.330       .  A
C154        C155   1.392       .  A
C155        H161   1.081       .  S
O156        C157   1.331       .  A
C157        C158   1.390       .  A
C158        H162   1.083       .  S
C163        C168   1.380       .  A
C163        C164   1.407       .  A
C163        O169   1.322       .  A
C164        C165   1.406       .  A
C164        H175   1.082       .  S
C165        C174   1.365       .  A
C165        C166   1.380       .  A
C166        C167   1.402       .  A
C166        O172   1.318       .  A
C167        C168   1.402       .  A
C167        H176   1.082       .  S
C168        C171   1.361       .  A
O169        C170   1.333       .  A
C170        C171   1.390       .  A
C171        H177   1.082       .  S
O172        C173   1.330       .  A
C173        C174   1.391       .  A
C174        H178   1.082       .  S
C179        C184   1.381       .  A
C179        C180   1.401       .  A
C179        O185   1.317       .  A
C180        C181   1.400       .  A
C180        H191   1.082       .  S
C181        C190   1.359       .  A
C181        C182   1.380       .  A
C182        C183   1.406       .  A
C182        O188   1.321       .  A
C183        C184   1.406       .  A
C183        H192   1.082       .  S
C184        C187   1.365       .  A
O185        C186   1.329       .  A
C186        C187   1.391       .  A
C187        H193   1.082       .  S
O188        C189   1.332       .  A
C189        C190   1.389       .  A
C190        H194   1.082       .  S
C195        C200   1.381       .  A
C195        C196   1.405       .  A
C195        O201   1.321       .  A
C196        C197   1.405       .  A
C196        H207   1.082       .  S
C197        C206   1.363       .  A
C197        C198   1.382       .  A
C198        C199   1.400       .  A
C198        O204   1.316       .  A
C199        C200   1.399       .  A
C199        H208   1.083       .  S
C200        C203   1.357       .  A
O201        C202   1.332       .  A
C202        C203   1.390       .  A
C203        H209   1.083       .  S
O204        C205   1.327       .  A
C205        C206   1.390       .  A
C206        H210   1.082       .  S
C211        C216   1.381       .  A
C211        C212   1.404       .  A
C211        O217   1.320       .  A
C212        C213   1.404       .  A
C212        H223   1.082       .  S
C213        C222   1.364       .  A
C213        C214   1.380       .  A
C214        C215   1.404       .  A
C214        O220   1.320       .  A
C215        C216   1.403       .  A
C215        H224   1.082       .  S
C216        C219   1.362       .  A
O217        C218   1.330       .  A
C218        C219   1.389       .  A
C219        H225   1.082       .  S
O220        C221   1.331       .  A
C221        C222   1.393       .  A
C222        H226   1.083       .  S
C227        C232   1.381       .  A
C227        C228   1.402       .  A
C227        O233   1.316       .  A
C228        C229   1.401       .  A
C228        H239   1.082       .  S
C229        C238   1.361       .  A
C229        C230   1.381       .  A
C230        C231   1.399       .  A
C230        O236   1.315       .  A
C231        C232   1.398       .  A
C231        H240   1.082       .  S
C232        C235   1.358       .  A
O233        C234   1.329       .  A
C234        C235   1.386       .  A
C235        H241   1.081       .  S
O236        C237   1.328       .  A
C237        C238   1.390       .  A
C238        H242   1.083       .  S
C243        C248   1.381       .  A
C243        C244   1.403       .  A
C243        O249   1.319       .  A
C244        C245   1.402       .  A
C244        H255   1.082       .  S
C245        C254   1.362       .  A
C245        C246   1.381       .  A
C246        C247   1.402       .  A
C246        O252   1.317       .  A
C247        C248   1.401       .  A
C247        H256   1.082       .  S
C248        C251   1.360       .  A
O249        C250   1.331       .  A
C250        C251   1.390       .  A
C251        H257   1.082       .  S
O252        C253   1.329       .  A
C253        C254   1.388       .  A
C254        H258   1.082       .  S
C259        H260   1.111       .  S
C259        C265   1.536       .  S
C259        C264   1.540       .  S
C259        C263   1.533       .  S
C261        H262   1.111       .  S
C261        C267   1.526       .  S
C261        C266   1.537       .  S
C261        C268   1.538       .  S
C263        C266   1.371       .  D
C263        C492   1.477       .  S
C264        C267   1.367       .  D
C264        C511   1.468       .  S
C265        C268   1.372       .  D
C265        C476   1.476       .  S
C266        C444   1.465       .  S
C267        C463   1.471       .  S
C268        C431   1.479       .  S
C269        H270   1.108       .  S
C269        C275   1.538       .  S
C269        C274   1.533       .  S
C269        C273   1.539       .  S
C271        H272   1.111       .  S
C271        C277   1.535       .  S
C271        C276   1.540       .  S
C271        C278   1.537       .  S
C273        C276   1.378       .  D
C273        C399   1.489       .  S
C274        C277   1.375       .  D
C274        C383   1.483       .  S
C275        C278   1.378       .  D
C275        C412   1.480       .  S
C276        C348   1.482       .  S
C277        C335   1.476       .  S
C278        C364   1.490       .  S
O279        C295   1.273       .  A
O279       Zn801   2.005       .  S
C280        O296   1.276       .  A
C280        O293   1.271       .  A
C280        C460   1.469       .  S
O281        C294   1.277       .  A
O281       Cd546   2.090   1_565  S
O282        C300   1.273       .  A
O282       Cd291   2.065   1_554  S
O283        C297   1.276       .  A
O284        C295   1.274       .  A
O284       Cd287   2.071       .  S
Zn285       O795   2.007   1_455  S
Zn285       O298   2.025   1_556  S
Zn285       O548   1.950   1_565  S
O286        C297   1.273       .  A
O286       Cd807   2.060       .  S
Cd287       O289   2.059   1_556  S
Cd288       O539   2.091       .  S
Cd288       O817   2.069       .  S
Cd288       O290   2.008   1_554  S
O289        C299   1.272       .  A
O290       Zn543   1.944       .  S
O290       Cd807   1.997       .  S
Cd291       O802   2.059   1_455  S
Cd291       O293   2.048       .  S
Cd291       O806   1.993   1_455  S
O292        C299   1.275       .  A
C294        O298   1.275       .  A
C294        C367   1.475       .  S
C295        C447   1.462       .  S
C297        C428   1.467       .  S
C299        C351   1.466       .  S
C300        O301   1.274       .  A
C300        C332   1.464       .  S
O301       Cd804   2.072   1_455  S
O302        C318   1.274       .  A
C303        O319   1.275       .  A
C303        O316   1.273       .  A
C303        C495   1.464       .  S
O304        C317   1.273       .  A
O304       Cd569   2.063   1_455  S
O305        C323   1.276       .  A
O305       Cd314   2.074       .  S
O306        C320   1.275       .  A
O306       Cd826   2.085       .  S
O307        C318   1.275       .  A
O307       Cd310   2.078       .  S
Zn308       O835   2.034   1_455  S
Zn308       O321   2.028       .  S
Zn308       O571   1.949   1_455  S
O309        C320   1.273       .  A
Cd310       O822   2.066   1_455  S
Cd310       O312   2.064       .  S
Cd310       O829   2.000   1_455  S
Cd311       O562   2.066       .  S
Cd311       O831   2.081       .  S
Cd311       O313   1.999       .  S
O312        C322   1.274       .  A
O313       Zn566   1.951       .  S
O313       Cd826   2.003       .  S
Cd314       O316   2.064       .  S
O315        C322   1.275       .  A
O315       Cd827   2.080   1_455  S
C317        O321   1.274       .  A
C317        C415   1.468       .  S
C318        C508   1.469       .  S
O319       Zn824   2.028       .  S
C320        C479   1.469       .  S
C322        C380   1.468       .  S
C323        O324   1.277       .  A
C323        C396   1.470       .  S
C325        C330   1.381       .  A
C325        C326   1.402       .  A
C325        O331   1.318       .  A
C326        C327   1.401       .  A
C326        H337   1.082       .  S
C327        C336   1.359       .  A
C327        C328   1.380       .  A
C328        C329   1.402       .  A
C328        O334   1.317       .  A
C329        C330   1.401       .  A
C329        H338   1.082       .  S
C330        C333   1.360       .  A
O331        C332   1.330       .  A
C332        C333   1.390       .  A
C333        H339   1.082       .  S
O334        C335   1.329       .  A
C335        C336   1.392       .  A
C336        H340   1.082       .  S
C341        C346   1.379       .  A
C341        C342   1.404       .  A
C341        O347   1.317       .  A
C342        C343   1.403       .  A
C342        H353   1.083       .  S
C343        C352   1.363       .  A
C343        C344   1.381       .  A
C344        C345   1.401       .  A
C344        O350   1.316       .  A
C345        C346   1.400       .  A
C345        H354   1.083       .  S
C346        C349   1.360       .  A
O347        C348   1.331       .  A
C348        C349   1.391       .  A
C349        H355   1.083       .  S
O350        C351   1.329       .  A
C351        C352   1.391       .  A
C352        H356   1.083       .  S
C357        C362   1.379       .  A
C357        C358   1.405       .  A
C357        O363   1.321       .  A
C358        C359   1.405       .  A
C358        H369   1.082       .  S
C359        C368   1.363       .  A
C359        C360   1.380       .  A
C360        C361   1.405       .  A
C360        O366   1.322       .  A
C361        C362   1.405       .  A
C361        H370   1.082       .  S
C362        C365   1.362       .  A
O363        C364   1.332       .  A
C364        C365   1.395       .  A
C365        H371   1.082       .  S
O366        C367   1.332       .  A
C367        C368   1.392       .  A
C368        H372   1.082       .  S
C373        C378   1.381       .  A
C373        C374   1.404       .  A
C373        O379   1.320       .  A
C374        C375   1.404       .  A
C374        H385   1.083       .  S
C375        C384   1.361       .  A
C375        C376   1.380       .  A
C376        C377   1.401       .  A
C376        O382   1.317       .  A
C377        C378   1.401       .  A
C377        H386   1.082       .  S
C378        C381   1.359       .  A
O379        C380   1.331       .  A
C380        C381   1.390       .  A
C381        H387   1.082       .  S
O382        C383   1.330       .  A
C383        C384   1.394       .  A
C384        H388   1.082       .  S
C389        C394   1.381       .  A
C389        C390   1.402       .  A
C389        O395   1.317       .  A
C390        C391   1.400       .  A
C390        H401   1.082       .  S
C391        C400   1.359       .  A
C391        C392   1.378       .  A
C392        C393   1.405       .  A
C392        O398   1.318       .  A
C393        C394   1.405       .  A
C393        H402   1.082       .  S
C394        C397   1.365       .  A
O395        C396   1.330       .  A
C396        C397   1.393       .  A
C397        H403   1.082       .  S
O398        C399   1.332       .  A
C399        C400   1.392       .  A
C400        H404   1.081       .  S
C405        C410   1.379       .  A
C405        C406   1.402       .  A
C405        O411   1.317       .  A
C406        C407   1.402       .  A
C406        H417   1.083       .  S
C407        C416   1.361       .  A
C407        C408   1.381       .  A
C408        C409   1.402       .  A
C408        O414   1.318       .  A
C409        C410   1.401       .  A
C409        H418   1.083       .  S
C410        C413   1.360       .  A
O411        C412   1.330       .  A
C412        C413   1.391       .  A
C413        H419   1.081       .  S
O414        C415   1.330       .  A
C415        C416   1.391       .  A
C416        H420   1.083       .  S
C421        C426   1.381       .  A
C421        C422   1.405       .  A
C421        O427   1.321       .  A
C422        C423   1.404       .  A
C422        H433   1.082       .  S
C423        C432   1.363       .  A
C423        C424   1.380       .  A
C424        C425   1.402       .  A
C424        O430   1.318       .  A
C425        C426   1.401       .  A
C425        H434   1.082       .  S
C426        C429   1.360       .  A
O427        C428   1.331       .  A
C428        C429   1.390       .  A
C429        H435   1.082       .  S
O430        C431   1.330       .  A
C431        C432   1.392       .  A
C432        H436   1.081       .  S
C437        C442   1.382       .  A
C437        C438   1.399       .  A
C437        O443   1.315       .  A
C438        C439   1.399       .  A
C438        H449   1.082       .  S
C439        C448   1.357       .  A
C439        C440   1.381       .  A
C440        C441   1.402       .  A
C440        O446   1.318       .  A
C441        C442   1.401       .  A
C441        H450   1.082       .  S
C442        C445   1.359       .  A
O443        C444   1.327       .  A
C444        C445   1.388       .  A
C445        H451   1.082       .  S
O446        C447   1.330       .  A
C447        C448   1.388       .  A
C448        H452   1.082       .  S
C453        C458   1.381       .  A
C453        C454   1.402       .  A
C453        O459   1.320       .  A
C454        C455   1.402       .  A
C454        H465   1.082       .  S
C455        C464   1.358       .  A
C455        C456   1.381       .  A
C456        C457   1.403       .  A
C456        O462   1.320       .  A
C457        C458   1.403       .  A
C457        H466   1.083       .  S
C458        C461   1.358       .  A
O459        C460   1.330       .  A
C460        C461   1.392       .  A
C461        H467   1.083       .  S
O462        C463   1.330       .  A
C463        C464   1.387       .  A
C464        H468   1.082       .  S
C469        C474   1.380       .  A
C469        C470   1.402       .  A
C469        O475   1.320       .  A
C470        C471   1.403       .  A
C470        H481   1.082       .  S
C471        C480   1.359       .  A
C471        C472   1.381       .  A
C472        C473   1.403       .  A
C472        O478   1.320       .  A
C473        C474   1.403       .  A
C473        H482   1.083       .  S
C474        C477   1.357       .  A
O475        C476   1.330       .  A
C476        C477   1.388       .  A
C477        H483   1.080       .  S
O478        C479   1.331       .  A
C479        C480   1.390       .  A
C480        H484   1.082       .  S
C485        C490   1.380       .  A
C485        C486   1.404       .  A
C485        O491   1.321       .  A
C486        C487   1.405       .  A
C486        H497   1.082       .  S
C487        C496   1.361       .  A
C487        C488   1.382       .  A
C488        C489   1.399       .  A
C488        O494   1.318       .  A
C489        C490   1.400       .  A
C489        H498   1.083       .  S
C490        C493   1.352       .  A
O491        C492   1.332       .  A
C492        C493   1.386       .  A
C493        H499   1.080       .  S
O494        C495   1.328       .  A
C495        C496   1.391       .  A
C496        H500   1.082       .  S
C501        C506   1.381       .  A
C501        C502   1.401       .  A
C501        O507   1.316       .  A
C502        C503   1.399       .  A
C502        H513   1.082       .  S
C503        C512   1.360       .  A
C503        C504   1.381       .  A
C504        C505   1.405       .  A
C504        O510   1.318       .  A
C505        C506   1.404       .  A
C505        H514   1.082       .  S
C506        C509   1.365       .  A
O507        C508   1.329       .  A
C508        C509   1.393       .  A
C509        H515   1.082       .  S
O510        C511   1.331       .  A
C511        C512   1.386       .  A
C512        H516   1.082       .  S
C517        H518   1.112       .  S
C517        C523   1.532       .  S
C517        C522   1.536       .  S
C517        C521   1.530       .  S
C519        H520   1.112       .  S
C519        C525   1.535       .  S
C519        C524   1.537       .  S
C519        C526   1.536       .  S
C521        C524   1.372       .  D
C521        C750   1.471       .  S
C522        C525   1.370       .  D
C522        C769   1.474       .  S
C523        C526   1.369       .  D
C523        C734   1.473       .  S
C524        C702   1.473       .  S
C525        C721   1.472       .  S
C526        C689   1.470       .  S
C527        H528   1.108       .  S
C527        C533   1.540       .  S
C527        C532   1.535       .  S
C527        C531   1.539       .  S
C529        H530   1.110       .  S
C529        C535   1.537       .  S
C529        C534   1.543       .  S
C529        C536   1.538       .  S
C531        C534   1.381       .  D
C531        C657   1.491       .  S
C532        C535   1.379       .  D
C532        C641   1.486       .  S
C533        C536   1.378       .  D
C533        C670   1.489       .  S
C534        C606   1.486       .  S
C535        C593   1.485       .  S
C536        C622   1.488       .  S
O537        C553   1.273       .  A
C538        O554   1.275       .  A
C538        O551   1.274       .  A
C538        C718   1.472       .  S
O539        C552   1.277       .  A
O540        C558   1.276       .  A
O540       Cd549   2.083   1_554  S
O541        C555   1.273       .  A
O541       Cd803   2.068   1_545  S
O542        C553   1.275       .  A
O542       Cd545   2.076       .  S
Zn543       O812   2.041       .  S
Zn543       O556   2.018   1_556  S
O544        C555   1.275       .  A
Cd545       O799   2.079       .  S
Cd545       O547   2.083   1_556  S
Cd545       O806   2.007       .  S
Cd546       O808   2.086   1_445  S
Cd546       O548   2.005   1_554  S
O547        C557   1.276       .  A
O548       Cd803   2.004   1_445  S
Cd549       O551   2.066       .  S
O550        C557   1.275       .  A
O550       Cd804   2.073       .  S
C552        O556   1.275       .  A
C552        C625   1.472       .  S
C553        C705   1.466       .  S
O554       Zn801   2.035   1_545  S
C555        C686   1.464       .  S
C557        C609   1.472       .  S
C558        O559   1.274       .  A
C558        C590   1.468       .  S
O560        C576   1.274       .  A
O560       Zn824   2.017   1_545  S
C561        O577   1.276       .  A
C561        O574   1.273       .  A
C561        C753   1.465       .  S
O562        C575   1.273       .  A
O563        C581   1.273       .  A
O563       Cd572   2.066       .  S
O564        C578   1.273       .  A
O565        C576   1.275       .  A
O565       Cd568   2.078       .  S
Zn566       O818   2.021       .  S
Zn566       O579   2.041       .  S
O567        C578   1.276       .  A
O567       Cd830   2.085   1_545  S
Cd568       O570   2.074       .  S
Cd569       O840   2.059       .  S
Cd569       O571   2.004       .  S
O570        C580   1.276       .  A
O571       Cd830   1.998       .  S
Cd572       O825   2.083       .  S
Cd572       O574   2.058       .  S
Cd572       O829   2.000       .  S
O573        C580   1.278       .  A
C575        O579   1.275       .  A
C575        C673   1.474       .  S
C576        C766   1.467       .  S
C578        C737   1.473       .  S
C580        C638   1.475       .  S
C581        O582   1.275       .  A
C581        C654   1.469       .  S
O582       Cd827   2.080       .  S
C583        C588   1.380       .  A
C583        C584   1.403       .  A
C583        O589   1.317       .  A
C584        C585   1.402       .  A
C584        H595   1.082       .  S
C585        C594   1.360       .  A
C585        C586   1.379       .  A
C586        C587   1.405       .  A
C586        O592   1.319       .  A
C587        C588   1.404       .  A
C587        H596   1.082       .  S
C588        C591   1.365       .  A
O589        C590   1.330       .  A
C590        C591   1.392       .  A
C591        H597   1.082       .  S
O592        C593   1.332       .  A
C593        C594   1.393       .  A
C594        H598   1.082       .  S
C599        C604   1.379       .  A
C599        C600   1.402       .  A
C599        O605   1.317       .  A
C600        C601   1.402       .  A
C600        H611   1.083       .  S
C601        C610   1.361       .  A
C601        C602   1.381       .  A
C602        C603   1.405       .  A
C602        O608   1.320       .  A
C603        C604   1.404       .  A
C603        H612   1.083       .  S
C604        C607   1.362       .  A
O605        C606   1.330       .  A
C606        C607   1.394       .  A
C607        H613   1.082       .  S
O608        C609   1.332       .  A
C609        C610   1.391       .  A
C610        H614   1.083       .  S
C615        C620   1.379       .  A
C615        C616   1.403       .  A
C615        O621   1.319       .  A
C616        C617   1.403       .  A
C616        H627   1.082       .  S
C617        C626   1.360       .  A
C617        C618   1.380       .  A
C618        C619   1.405       .  A
C618        O624   1.322       .  A
C619        C620   1.405       .  A
C619        H628   1.082       .  S
C620        C623   1.362       .  A
O621        C622   1.331       .  A
C622        C623   1.395       .  A
C623        H629   1.082       .  S
O624        C625   1.332       .  A
C625        C626   1.391       .  A
C626        H630   1.082       .  S
C631        C636   1.381       .  A
C631        C632   1.405       .  A
C631        O637   1.322       .  A
C632        C633   1.405       .  A
C632        H643   1.082       .  S
C633        C642   1.361       .  A
C633        C634   1.379       .  A
C634        C635   1.403       .  A
C634        O640   1.319       .  A
C635        C636   1.403       .  A
C635        H644   1.082       .  S
C636        C639   1.360       .  A
O637        C638   1.332       .  A
C638        C639   1.391       .  A
C639        H645   1.082       .  S
O640        C641   1.331       .  A
C641        C642   1.395       .  A
C642        H646   1.082       .  S
C647        C652   1.381       .  A
C647        C648   1.401       .  A
C647        O653   1.317       .  A
C648        C649   1.400       .  A
C648        H659   1.082       .  S
C649        C658   1.358       .  A
C649        C650   1.378       .  A
C650        C651   1.406       .  A
C650        O656   1.319       .  A
C651        C652   1.405       .  A
C651        H660   1.082       .  S
C652        C655   1.365       .  A
O653        C654   1.329       .  A
C654        C655   1.393       .  A
C655        H661   1.082       .  S
O656        C657   1.332       .  A
C657        C658   1.393       .  A
C658        H662   1.081       .  S
C663        C668   1.379       .  A
C663        C664   1.403       .  A
C663        O669   1.318       .  A
C664        C665   1.403       .  A
C664        H675   1.083       .  S
C665        C674   1.360       .  A
C665        C666   1.380       .  A
C666        C667   1.405       .  A
C666        O672   1.322       .  A
C667        C668   1.405       .  A
C667        H676   1.083       .  S
C668        C671   1.363       .  A
O669        C670   1.331       .  A
C670        C671   1.393       .  A
C671        H677   1.081       .  S
O672        C673   1.332       .  A
C673        C674   1.392       .  A
C674        H678   1.083       .  S
C679        C684   1.381       .  A
C679        C680   1.402       .  A
C679        O685   1.317       .  A
C680        C681   1.401       .  A
C680        H691   1.082       .  S
C681        C690   1.359       .  A
C681        C682   1.381       .  A
C682        C683   1.402       .  A
C682        O688   1.316       .  A
C683        C684   1.401       .  A
C683        H692   1.082       .  S
C684        C687   1.360       .  A
O685        C686   1.329       .  A
C686        C687   1.390       .  A
C687        H693   1.082       .  S
O688        C689   1.329       .  A
C689        C690   1.388       .  A
C690        H694   1.081       .  S
C695        C700   1.381       .  A
C695        C696   1.403       .  A
C695        O701   1.320       .  A
C696        C697   1.403       .  A
C696        H707   1.082       .  S
C697        C706   1.360       .  A
C697        C698   1.381       .  A
C698        C699   1.402       .  A
C698        O704   1.319       .  A
C699        C700   1.401       .  A
C699        H708   1.082       .  S
C700        C703   1.358       .  A
O701        C702   1.330       .  A
C702        C703   1.389       .  A
C703        H709   1.082       .  S
O704        C705   1.330       .  A
C705        C706   1.391       .  A
C706        H710   1.082       .  S
C711        C716   1.381       .  A
C711        C712   1.404       .  A
C711        O717   1.321       .  A
C712        C713   1.403       .  A
C712        H723   1.082       .  S
C713        C722   1.361       .  A
C713        C714   1.381       .  A
C714        C715   1.403       .  A
C714        O720   1.319       .  A
C715        C716   1.403       .  A
C715        H724   1.083       .  S
C716        C719   1.360       .  A
O717        C718   1.332       .  A
C718        C719   1.391       .  A
C719        H725   1.083       .  S
O720        C721   1.330       .  A
C721        C722   1.388       .  A
C722        H726   1.081       .  S
C727        C732   1.381       .  A
C727        C728   1.405       .  A
C727        O733   1.320       .  A
C728        C729   1.404       .  A
C728        H739   1.082       .  S
C729        C738   1.364       .  A
C729        C730   1.380       .  A
C730        C731   1.403       .  A
C730        O736   1.319       .  A
C731        C732   1.402       .  A
C731        H740   1.082       .  S
C732        C735   1.361       .  A
O733        C734   1.331       .  A
C734        C735   1.388       .  A
C735        H741   1.083       .  S
O736        C737   1.331       .  A
C737        C738   1.392       .  A
C738        H742   1.082       .  S
C743        C748   1.381       .  A
C743        C744   1.401       .  A
C743        O749   1.316       .  A
C744        C745   1.400       .  A
C744        H755   1.082       .  S
C745        C754   1.359       .  A
C745        C746   1.381       .  A
C746        C747   1.403       .  A
C746        O752   1.318       .  A
C747        C748   1.402       .  A
C747        H756   1.082       .  S
C748        C751   1.360       .  A
O749        C750   1.328       .  A
C750        C751   1.391       .  A
C751        H757   1.082       .  S
O752        C753   1.330       .  A
C753        C754   1.390       .  A
C754        H758   1.082       .  S
C759        C764   1.381       .  A
C759        C760   1.402       .  A
C759        O765   1.317       .  A
C760        C761   1.401       .  A
C760        H771   1.082       .  S
C761        C770   1.360       .  A
C761        C762   1.380       .  A
C762        C763   1.404       .  A
C762        O768   1.319       .  A
C763        C764   1.404       .  A
C763        H772   1.082       .  S
C764        C767   1.364       .  A
O765        C766   1.330       .  A
C766        C767   1.391       .  A
C767        H773   1.082       .  S
O768        C769   1.330       .  A
C769        C770   1.389       .  A
C770        H774   1.082       .  S
C775        H776   1.112       .  S
C775        C781   1.537       .  S
C775        C780   1.536       .  S
C775        C779   1.528       .  S
C777        H778   1.112       .  S
C777        C783   1.533       .  S
C777        C782   1.540       .  S
C777        C784   1.528       .  S
C779        C782   1.371       .  D
C779       C1008   1.476       .  S
C780        C783   1.371       .  D
C780       C1027   1.473       .  S
C781        C784   1.368       .  D
C781        C992   1.469       .  S
C782        C960   1.465       .  S
C783        C979   1.474       .  S
C784        C947   1.466       .  S
C785        H786   1.109       .  S
C785        C791   1.536       .  S
C785        C790   1.534       .  S
C785        C789   1.539       .  S
C787        H788   1.109       .  S
C787        C793   1.536       .  S
C787        C792   1.543       .  S
C787        C794   1.539       .  S
C789        C792   1.383       .  D
C789        C915   1.484       .  S
C790        C793   1.377       .  D
C790        C899   1.488       .  S
C791        C794   1.379       .  D
C791        C928   1.484       .  S
C792        C864   1.496       .  S
C793        C851   1.479       .  S
C794        C880   1.489       .  S
O795        C811   1.273       .  A
C796        O812   1.274       .  A
C796        O809   1.272       .  A
C796        C976   1.472       .  S
O797        C810   1.276       .  A
O798        C816   1.274       .  A
O798       Cd807   2.066   1_554  S
O799        C813   1.275       .  A
O800        C811   1.273       .  A
O800       Cd803   2.066       .  S
Zn801       O814   2.019   1_556  S
O802        C813   1.273       .  A
Cd803       O805   2.068   1_556  S
Cd804       O806   2.001   1_554  S
O805        C815   1.274       .  A
Cd807       O809   2.061       .  S
O808        C815   1.276       .  A
C810        O814   1.274       .  A
C810        C883   1.474       .  S
C811        C963   1.465       .  S
C813        C944   1.467       .  S
C815        C867   1.473       .  S
C816        O817   1.274       .  A
C816        C848   1.463       .  S
O818        C834   1.274       .  A
C819        O835   1.276       .  A
C819        O832   1.276       .  A
C819       C1011   1.470       .  S
O820        C833   1.274       .  A
O821        C839   1.274       .  A
O821       Cd830   2.073       .  S
O822        C836   1.273       .  A
O823        C834   1.276       .  A
O823       Cd826   2.079       .  S
Zn824       O837   2.026       .  S
O825        C836   1.275       .  A
Cd826       O828   2.061       .  S
Cd827       O829   2.001       .  S
O828        C838   1.273       .  A
Cd830       O832   2.068       .  S
O831        C838   1.276       .  A
C833        O837   1.273       .  A
C833        C931   1.470       .  S
C834       C1024   1.468       .  S
C836        C995   1.468       .  S
C838        C896   1.469       .  S
C839        O840   1.273       .  A
C839        C912   1.464       .  S
C841        C846   1.381       .  A
C841        C842   1.401       .  A
C841        O847   1.317       .  A
C842        C843   1.401       .  A
C842        H853   1.082       .  S
C843        C852   1.358       .  A
C843        C844   1.380       .  A
C844        C845   1.403       .  A
C844        O850   1.318       .  A
C845        C846   1.402       .  A
C845        H854   1.082       .  S
C846        C849   1.361       .  A
O847        C848   1.329       .  A
C848        C849   1.390       .  A
C849        H855   1.082       .  S
O850        C851   1.330       .  A
C851        C852   1.392       .  A
C852        H856   1.082       .  S
C857        C862   1.377       .  A
C857        C858   1.405       .  A
C857        O863   1.318       .  A
C858        C859   1.404       .  A
C858        H869   1.083       .  S
C859        C868   1.364       .  A
C859        C860   1.380       .  A
C860        C861   1.404       .  A
C860        O866   1.319       .  A
C861        C862   1.403       .  A
C861        H870   1.083       .  S
C862        C865   1.363       .  A
O863        C864   1.332       .  A
C864        C865   1.395       .  A
C865        H871   1.082       .  S
O866        C867   1.331       .  A
C867        C868   1.392       .  A
C868        H872   1.083       .  S
C873        C878   1.379       .  A
C873        C874   1.403       .  A
C873        O879   1.318       .  A
C874        C875   1.403       .  A
C874        H885   1.082       .  S
C875        C884   1.361       .  A
C875        C876   1.380       .  A
C876        C877   1.405       .  A
C876        O882   1.321       .  A
C877        C878   1.405       .  A
C877        H886   1.082       .  S
C878        C881   1.362       .  A
O879        C880   1.331       .  A
C880        C881   1.396       .  A
C881        H887   1.082       .  S
O882        C883   1.332       .  A
C883        C884   1.392       .  A
C884        H888   1.083       .  S
C889        C894   1.381       .  A
C889        C890   1.403       .  A
C889        O895   1.320       .  A
C890        C891   1.403       .  A
C890        H901   1.082       .  S
C891        C900   1.360       .  A
C891        C892   1.379       .  A
C892        C893   1.404       .  A
C892        O898   1.320       .  A
C893        C894   1.403       .  A
C893        H902   1.082       .  S
C894        C897   1.361       .  A
O895        C896   1.330       .  A
C896        C897   1.392       .  A
C897        H903   1.082       .  S
O898        C899   1.332       .  A
C899        C900   1.394       .  A
C900        H904   1.082       .  S
C905        C910   1.381       .  A
C905        C906   1.401       .  A
C905        O911   1.318       .  A
C906        C907   1.401       .  A
C906        H917   1.082       .  S
C907        C916   1.357       .  A
C907        C908   1.378       .  A
C908        C909   1.400       .  A
C908        O914   1.316       .  A
C909        C910   1.401       .  A
C909        H918   1.082       .  S
C910        C913   1.358       .  A
O911        C912   1.330       .  A
C912        C913   1.390       .  A
C913        H919   1.082       .  S
O914        C915   1.329       .  A
C915        C916   1.393       .  A
C916        H920   1.079       .  S
C921        C926   1.379       .  A
C921        C922   1.400       .  A
C921        O927   1.316       .  A
C922        C923   1.400       .  A
C922        H933   1.083       .  S
C923        C932   1.358       .  A
C923        C924   1.381       .  A
C924        C925   1.405       .  A
C924        O930   1.321       .  A
C925        C926   1.405       .  A
C925        H934   1.083       .  S
C926        C929   1.361       .  A
O927        C928   1.329       .  A
C928        C929   1.394       .  A
C929        H935   1.080       .  S
O930        C931   1.332       .  A
C931        C932   1.389       .  A
C932        H936   1.083       .  S
C937        C942   1.381       .  A
C937        C938   1.403       .  A
C937        O943   1.319       .  A
C938        C939   1.402       .  A
C938        H949   1.082       .  S
C939        C948   1.361       .  A
C939        C940   1.381       .  A
C940        C941   1.401       .  A
C940        O946   1.317       .  A
C941        C942   1.400       .  A
C941        H950   1.082       .  S
C942        C945   1.359       .  A
O943        C944   1.330       .  A
C944        C945   1.391       .  A
C945        H951   1.082       .  S
O946        C947   1.328       .  A
C947        C948   1.388       .  A
C948        H952   1.081       .  S
C953        C958   1.382       .  A
C953        C954   1.403       .  A
C953        O959   1.319       .  A
C954        C955   1.402       .  A
C954        H965   1.082       .  S
C955        C964   1.360       .  A
C955        C956   1.381       .  A
C956        C957   1.401       .  A
C956        O962   1.317       .  A
C957        C958   1.400       .  A
C957        H966   1.082       .  S
C958        C961   1.358       .  A
O959        C960   1.329       .  A
C960        C961   1.386       .  A
C961        H967   1.082       .  S
O962        C963   1.329       .  A
C963        C964   1.391       .  A
C964        H968   1.082       .  S
C969        C974   1.381       .  A
C969        C970   1.404       .  A
C969        O975   1.321       .  A
C970        C971   1.404       .  A
C970        H981   1.082       .  S
C971        C980   1.361       .  A
C971        C972   1.381       .  A
C972        C973   1.402       .  A
C972        O978   1.319       .  A
C973        C974   1.402       .  A
C973        H982   1.083       .  S
C974        C977   1.360       .  A
O975        C976   1.331       .  A
C976        C977   1.391       .  A
C977        H983   1.083       .  S
O978        C979   1.330       .  A
C979        C980   1.389       .  A
C980        H984   1.081       .  S
C985        C990   1.381       .  A
C985        C986   1.404       .  A
C985        O991   1.319       .  A
C986        C987   1.404       .  A
C986        H997   1.082       .  S
C987        C996   1.364       .  A
C987        C988   1.381       .  A
C988        C989   1.401       .  A
C988        O994   1.316       .  A
C989        C990   1.400       .  A
C989        H998   1.082       .  S
C990        C993   1.359       .  A
O991        C992   1.330       .  A
C992        C993   1.387       .  A
C993        H999   1.083       .  S
O994        C995   1.330       .  A
C995        C996   1.392       .  A
C996       H1000   1.082       .  S
C1001      C1006   1.381       .  A
C1001      C1002   1.399       .  A
C1001      O1007   1.316       .  A
C1002      C1003   1.399       .  A
C1002      H1013   1.082       .  S
C1003      C1012   1.358       .  A
C1003      C1004   1.380       .  A
C1004      C1005   1.408       .  A
C1004      O1010   1.323       .  A
C1005      C1006   1.407       .  A
C1005      H1014   1.082       .  S
C1006      C1009   1.367       .  A
O1007      C1008   1.328       .  A
C1008      C1009   1.394       .  A
C1009      H1015   1.082       .  S
O1010      C1011   1.333       .  A
C1011      C1012   1.388       .  A
C1012      H1016   1.082       .  S
C1017      C1022   1.381       .  A
C1017      C1018   1.402       .  A
C1017      O1023   1.318       .  A
C1018      C1019   1.401       .  A
C1018      H1029   1.082       .  S
C1019      C1028   1.359       .  A
C1019      C1020   1.381       .  A
C1020      C1021   1.404       .  A
C1020      O1026   1.319       .  A
C1021      C1022   1.403       .  A
C1021      H1030   1.082       .  S
C1022      C1025   1.362       .  A
O1023      C1024   1.330       .  A
C1024      C1025   1.391       .  A
C1025      H1031   1.082       .  S
O1026      C1027   1.330       .  A
C1027      C1028   1.390       .  A
C1028      H1032   1.082       .  S
