geometry optimzed in LAMMPS
_audit_creation_date              2020-11-30 
_audit_creation_method            'lammps2cif' 
_symmetry_space_group_name_H-M    'P1' 
_symmetry_Int_Tables_number       1 
_symmetry_cell_setting            triclinic 
loop_ 
_symmetry_equiv_pos_as_xyz 
  x,y,z 
_cell_length_a                    34.26610903 
_cell_length_b                    34.25604750962101 
_cell_length_c                    43.36463376792154 
_cell_angle_alpha                 87.92840635736329 
_cell_angle_beta                  88.2379552459415 
_cell_angle_gamma                 130.48597826260794 
loop_ 
_atom_site_label 
_atom_site_type_symbol 
_atom_site_fract_x 
_atom_site_fract_y 
_atom_site_fract_z 
_atom_site_charge 
C1          C  0.34424956  0.16015705  0.34581717     0.45000
H2          H  0.34766430  0.16384335  0.32011171    -0.04000
C3          C  0.33610399  0.15179579  0.40593880     0.45100
H4          H  0.33226567  0.14712628  0.43159525    -0.04000
C5          C  0.36245594  0.13300748  0.36018190    -0.17700
C6          C  0.37420305  0.21244684  0.36040882    -0.17400
C7          C  0.28883441  0.12897831  0.35947759    -0.17800
C8          C  0.35909353  0.12976992  0.39192563    -0.17800
C9          C  0.37162311  0.20815623  0.39237009    -0.17300
C10         C  0.28448296  0.12502750  0.39126554    -0.17700
C11         C  0.15020452  0.34243956  0.15522447     0.45000
H12         H  0.14861741  0.34043522  0.18090975    -0.04000
C13         C  0.15397167  0.34583155  0.09503999     0.45100
H14         H  0.15618902  0.34719312  0.06936727    -0.04000
C15         C  0.20541617  0.37469115  0.13990528    -0.17700
C16         C  0.11969544  0.28915366  0.14237581    -0.17400
C17         C  0.12732875  0.36491345  0.14082242    -0.17800
C18         C  0.20702302  0.37540802  0.10816482    -0.17800
C19         C  0.12048381  0.29061700  0.11063956    -0.17300
C20         C  0.13258926  0.36992219  0.10884773    -0.17700
O21         O  0.40431398  0.38088450  0.46899833    -0.81300
O22         O  0.00888229  0.08817413  0.03049237    -0.66000
O23         O  0.47514228  0.48842992  0.47401908    -1.12600
C24         C  0.06800619  0.46636845  0.04085525     1.05600
O25         O  0.08883853  0.12039388  0.02601847    -0.79200
O26         O  0.12267656  0.07851857  0.49735130    -0.66800
Ni27       Ni  0.40619790  0.43824514  0.46227023     1.34900
C28         C  0.11082271  0.05230087  0.47411973     0.84300
O29         O  0.46290157  0.06147077  0.47692546    -0.79700
O30         O  0.40108018  0.99030609  0.45347439    -0.90000
C31         C  0.05529503  0.12193451  0.03700680     0.83900
O32         O  0.37123820  0.42130524  0.00195625    -0.68200
O33         O  0.09023093  0.51228046  0.04749424    -0.87500
C34         C  0.38145933  0.44817198  0.02464231     0.84700
C35         C  0.42534613  0.03684241  0.45969428     1.06300
H36         H  0.49640903  0.49533254  0.04408306     0.38100
O37         O  0.01770311  0.01365972  0.02520450    -1.10200
O38         O  0.06643929  0.00911568  0.47190217    -0.66800
Ni39       Ni  0.00321095  0.46439568  0.49754929     1.26300
O40         O  0.42520860  0.49262636  0.02664393    -0.67000
O41         O  0.03207537  0.44216437  0.02236401    -0.79300
C42         C  0.43961232  0.37894969  0.46311773     0.84100
O43         O  0.48549583  0.41482077  0.46934363    -0.66500
Ni44       Ni  0.08692721  0.06436994  0.03622588     1.27400
Ni45       Ni  0.49004186  0.03802395  0.00180569     1.26100
H46         H  0.49661568  0.00703503  0.45515259     0.38600
O47         O  0.11440821  0.09651188  0.27793909    -0.81300
O48         O  0.40648483  0.48458865  0.22081098    -0.66000
O49         O  0.00818462  0.02142752  0.27659974    -1.12600
C50         C  0.03440955  0.43334631  0.20838960     1.05600
O51         O  0.37619039  0.40512858  0.22529435    -0.79200
O52         O  0.42200897  0.37455133  0.25398483    -0.66800
Ni53       Ni  0.05588724  0.09011559  0.28913397     1.34900
C54         C  0.45077899  0.38708140  0.27599123     0.84300
O55         O  0.43358515  0.03225229  0.27389168    -0.79700
O56         O  0.50140341  0.08975594  0.30126176    -0.90000
C57         C  0.37332760  0.43796687  0.21446257     0.83900
O58         O  0.06831413  0.12673812  0.25098737    -0.68200
O59         O  0.98739582  0.40875474  0.20320894    -0.87500
C60         C  0.04369854  0.11466535  0.22694563     0.84700
C61         C  0.45601008  0.06688414  0.29323867     1.06300
H62         H  0.00018507  0.99972793  0.20654972     0.38100
O63         O  0.48302163  0.47866743  0.22571358    -1.10200
O64         O  0.49353601  0.43216088  0.27786297    -0.66800
Ni65       Ni  0.03480045  0.49622636  0.25235098     1.26300
O66         O  0.00184307  0.06940695  0.22360637    -0.67000
O67         O  0.05889884  0.47000737  0.22646051    -0.79300
C68         C  0.11936541  0.06448475  0.28693108     0.84100
O69         O  0.08747316  0.01818206  0.27981004    -0.66500
Ni70       Ni  0.43367508  0.40933515  0.21497792     1.27400
Ni71       Ni  0.45762878  0.00522707  0.24916343     1.26100
H72         H  0.49010261  0.99901456  0.29532011     0.38600
C73         C  0.12613988  0.22582030  0.09406131    -0.09600
C74         C  0.10090358  0.24546868  0.09274962     0.06600
C75         C  0.05873866  0.22223488  0.07417834    -0.03300
C76         C  0.04424544  0.18191609  0.05641629    -0.07800
C77         C  0.07102361  0.16386203  0.05666089     0.05700
C78         C  0.11186706  0.18565781  0.07629670    -0.02800
Br79       Br  0.14820375  0.16093880  0.08153529    -0.02500
H80         H  0.15746606  0.24203377  0.10897536     0.09700
H81         H  0.01200342  0.16480150  0.04214807     0.07700
Br82       Br  0.01675775  0.24051725  0.07322070    -0.02900
C83         C  0.25472956  0.35957088  0.07449138    -0.09600
C84         C  0.25342542  0.39516407  0.08809277     0.06600
C85         C  0.29538845  0.44801390  0.08169620    -0.03300
C86         C  0.33798004  0.46422644  0.06258063    -0.07800
C87         C  0.33915909  0.42856594  0.04854945     0.05700
C88         C  0.29662546  0.37548810  0.05487651    -0.02800
Br89       Br  0.29212815  0.32196286  0.53760369    -0.02500
H90         H  0.22272050  0.31892501  0.07899696     0.09700
H91         H  0.36909562  0.50511844  0.05729376     0.07700
Br92       Br  0.29442925  0.49971652  0.09546470    -0.02900
C93         C  0.11794463  0.46591808  0.08062092    -0.09600
C94         C  0.08592585  0.44140619  0.05613124     0.06600
C95         C  0.07541775  0.39659787  0.04640355    -0.03300
C96         C  0.09399965  0.37604319  0.06260698    -0.07800
C97         C  0.12156021  0.39799687  0.08900628     0.05700
C98         C  0.13685724  0.44578514  0.09624244    -0.02800
Br99       Br  0.18819123  0.48961546  0.12424580    -0.02500
H100        H  0.12939013  0.50189312  0.08766778     0.09700
H101        H  0.08606488  0.34223573  0.05471421     0.07700
Br102      Br  0.03769704  0.36206966  0.51096654    -0.02900
C103        C  0.13376430  0.23971059  0.17619467    -0.09600
C104        C  0.09895042  0.24248594  0.16266911     0.06600
C105        C  0.04585121  0.20146003  0.16910561    -0.03300
C106        C  0.02856004  0.15871615  0.18864495    -0.07800
C107        C  0.06348876  0.15641488  0.20269106     0.05700
C108        C  0.11673738  0.19740042  0.19595664    -0.02800
Br109      Br  0.16829464  0.19755500  0.21234669    -0.02500
H110        H  0.17456417  0.27068653  0.17139998     0.09700
H111        H  0.98760448  0.12835882  0.19414328     0.07700
Br112      Br  0.99538483  0.20374574  0.15435784    -0.02900
C113        C  0.31340428  0.44898467  0.19485975    -0.09600
C114        C  0.33074780  0.42156232  0.19504454     0.06600
C115        C  0.30863285  0.38065822  0.17546631    -0.03300
C116        C  0.26880941  0.36700841  0.15737878    -0.07800
C117        C  0.25011742  0.39321983  0.15815250     0.05700
C118        C  0.27394591  0.43554196  0.17656458    -0.02800
Br119      Br  0.25886806  0.48016652  0.17602969    -0.02500
H120        H  0.33094193  0.48148009  0.20891020     0.09700
H121        H  0.25238432  0.33569080  0.14248285     0.07700
Br122      Br  0.33296230  0.34396681  0.17047211    -0.02900
C123        C  0.12417852  0.40725766  0.18552525    -0.09600
C124        C  0.10040433  0.37754724  0.16018067     0.06600
C125        C  0.05270304  0.36271728  0.15315107    -0.03300
C126        C  0.03335503  0.38233914  0.16877778    -0.07800
C127        C  0.05961674  0.41628949  0.19226489     0.05700
C128        C  0.10585139  0.42860334  0.20063037    -0.02800
Br129      Br  0.14709801  0.47470282  0.23157589    -0.02500
H130        H  0.15830897  0.41552808  0.19302464     0.09700
H131        H  0.99683863  0.37028694  0.16235184     0.07700
Br132      Br  0.00861557  0.31206952  0.12489516    -0.02900
C133        C  0.44520642  0.10859646  0.42636202    -0.09600
C134        C  0.40933779  0.06361789  0.44547792     0.06600
C135        C  0.35834751  0.04396206  0.44971381    -0.03300
C136        C  0.34308392  0.06719929  0.43293583    -0.07800
C137        C  0.37796120  0.10955067  0.41164578     0.05700
C138        C  0.43005940  0.13198660  0.40976761    -0.02800
Br139      Br  0.48275957  0.19621855  0.38679953    -0.02500
H140        H  0.48497525  0.12509536  0.42392700     0.09700
H141        H  0.30348493  0.05113777  0.43572015     0.07700
Br142      Br  0.30905067  0.98680281  0.97892277    -0.02900
C143        C  0.36466298  0.24362410  0.43923441    -0.09600
C144        C  0.39473585  0.25139883  0.41302361     0.06600
C145        C  0.44486022  0.29981325  0.40761210    -0.03300
C146        C  0.45986690  0.34074899  0.42502404    -0.07800
C147        C  0.42652258  0.33382118  0.44865920     0.05700
C148        C  0.37990082  0.28401229  0.45684872    -0.03600
Br149      Br  0.33614883  0.26798254  0.49254377    -0.02500
H150        H  0.32822340  0.20622974  0.44600858     0.09700
H151        H  0.49734245  0.37834895  0.41967125     0.07700
Br152      Br  0.49662556  0.31164161  0.37972390    -0.02900
C153        C  0.15307490  0.03558011  0.43569169    -0.09600
C154        C  0.15159041  0.07118886  0.44953892     0.06600
C155        C  0.19184675  0.12412818  0.44169859    -0.03300
C156        C  0.23397518  0.14037938  0.42232166    -0.07800
C157        C  0.23709064  0.10509764  0.41010987     0.05700
C158        C  0.19528753  0.05219320  0.41600502    -0.02800
Br159      Br  0.19471992  0.00136653  0.39854501    -0.02500
H160        H  0.12227908  0.99466717  0.44115094     0.09700
H161        H  0.26418523  0.18095429  0.41643125     0.07700
Br162      Br  0.19061870  0.17598956  0.45553177    -0.02900
C163        C  0.38332127  0.04608343  0.32600116    -0.09600
C164        C  0.42868423  0.08224240  0.30734264     0.06600
C165        C  0.44964577  0.13379468  0.30432604    -0.03300
C166        C  0.42597312  0.14867246  0.32067933    -0.07800
C167        C  0.38249959  0.11344434  0.34101980     0.05700
C168        C  0.36036810  0.06123996  0.34306383    -0.02800
Br169      Br  0.29841183  0.00824068  0.36779360    -0.02500
H170        H  0.36673509  0.00624981  0.32817799     0.09700
H171        H  0.44321539  0.18856759  0.31865621     0.07700
Br172      Br  0.51067553  0.18542917  0.27824308    -0.02900
C173        C  0.43333849  0.27687934  0.31689947    -0.09600
C174        C  0.39580544  0.26012606  0.34071343     0.06600
C175        C  0.37750031  0.28700207  0.34349064    -0.03300
C176        C  0.39685237  0.32931752  0.32281402    -0.07800
C177        C  0.43480061  0.34609752  0.29945299     0.05700
C178        C  0.45352718  0.31989576  0.29682326    -0.02800
Br179      Br  0.50569246  0.34038699  0.26562619    -0.02500
H180        H  0.44773110  0.25692763  0.31414793     0.09700
H181        H  0.38146568  0.34860797  0.32458071     0.07700
Br182      Br  0.32360647  0.26645929  0.37304255    -0.02900
C183        C  0.22307283  0.13405027  0.34389437    -0.09600
C184        C  0.24640837  0.11275679  0.33990234     0.06600
C185        C  0.22935765  0.07737916  0.31714330    -0.03300
C186        C  0.18748076  0.06151673  0.30048594    -0.07800
C187        C  0.16356307  0.08218203  0.30489409     0.05700
C188        C  0.18233317  0.11949806  0.32667276    -0.02800
Br189      Br  0.15279009  0.15040374  0.33559253    -0.02500
H190        H  0.23655542  0.16232229  0.36055789     0.09700
H191        H  0.17401560  0.03341661  0.28370465     0.07700
Br192      Br  0.26107122  0.04915040  0.30753145    -0.02900
C193        C  0.34424251  0.16012910  0.84579729     0.45000
H194        H  0.34766227  0.16380565  0.82009173    -0.04000
C195        C  0.33608149  0.15178508  0.90591824     0.45100
H196        H  0.33223271  0.14711914  0.93157487    -0.04000
C197        C  0.36242596  0.13296428  0.86017465    -0.17700
C198        C  0.37420824  0.21242890  0.86038461    -0.17400
C199        C  0.28882371  0.12896357  0.85944711    -0.17800
C200        C  0.35907452  0.12975358  0.89191790    -0.17800
C201        C  0.37160852  0.20814694  0.89234866    -0.17300
C202        C  0.28446444  0.12501471  0.89123488    -0.17700
C203        C  0.15013526  0.34241083  0.65520410     0.45000
H204        H  0.14854256  0.34042868  0.68088923    -0.04000
C205        C  0.15391055  0.34574569  0.59502120     0.45100
H206        H  0.15612956  0.34708172  0.56934932    -0.04000
C207        C  0.20534491  0.37461579  0.63989203    -0.17700
C208        C  0.11959496  0.28910759  0.64237863    -0.17400
C209        C  0.12729536  0.36490250  0.64077449    -0.17800
C210        C  0.20695431  0.37530057  0.60815075    -0.17800
C211        C  0.12038718  0.29054309  0.61064132    -0.17300
C212        C  0.13257083  0.36988899  0.60880030    -0.17700
O213        O  0.40426206  0.38085928  0.96904395    -0.81300
O214        O  0.00877825  0.08806938  0.53053071    -0.66000
O215        O  0.47513755  0.48842798  0.97403029    -1.12600
C216        C  0.06801472  0.46636335  0.54083668     1.05600
O217        O  0.08875039  0.12032904  0.52605058    -0.79200
O218        O  0.12269147  0.07851786  0.99731863    -0.66800
Ni219      Ni  0.40615986  0.43823432  0.96232954     1.34900
C220        C  0.11081274  0.05227222  0.97409838     0.84300
O221        O  0.46297664  0.06153200  0.97689603    -0.79700
O222        O  0.40103895  0.99029909  0.95354301    -0.90000
C223        C  0.05519014  0.12184159  0.53704430     0.83900
O224        O  0.37118281  0.42127044  0.50186863    -0.68200
O225        O  0.09019778  0.51225237  0.54750517    -0.87500
C226        C  0.38137234  0.44807056  0.52458658     0.84700
C227        C  0.42536213  0.03686888  0.95970990     1.06300
H228        H  0.49636469  0.49525976  0.54407298     0.38100
O229        O  0.01765879  0.01360614  0.52520877    -1.10200
O230        O  0.06642395  0.00907878  0.97190207    -0.66800
Ni231      Ni  0.00320390  0.46439837  0.99756728     1.26300
O232        O  0.42512982  0.49249946  0.52663652    -0.67000
O233        O  0.03209657  0.44216612  0.52233598    -0.79300
C234        C  0.43954860  0.37890863  0.96315901     0.84100
O235        O  0.48543757  0.41477393  0.96938301    -0.66500
Ni236      Ni  0.08686874  0.06432497  0.53624900     1.27400
Ni237      Ni  0.48998295  0.03796528  0.50182081     1.26100
H238        H  0.49659446  0.00700054  0.95514557     0.38600
O239        O  0.11432038  0.09644864  0.77792851    -0.81300
O240        O  0.40637390  0.48447855  0.72080547    -0.66000
O241        O  0.00809937  0.02132804  0.77657334    -1.12600
C242        C  0.03435366  0.43334442  0.70828496     1.05600
O243        O  0.37611363  0.40502815  0.72528354    -0.79200
O244        O  0.42201320  0.37445630  0.75388668    -0.66800
Ni245      Ni  0.05576357  0.08998574  0.78915054     1.34900
C246        C  0.45076936  0.38699614  0.77590379     0.84300
O247        O  0.43347167  0.03212274  0.77388955    -0.79700
O248        O  0.50124631  0.08955574  0.80130973    -0.90000
C249        C  0.37322310  0.43785202  0.71446291     0.83900
O250        O  0.06815076  0.12665391  0.75103225    -0.68200
O251        O  0.98735207  0.40877073  0.70308416    -0.87500
C252        C  0.04356524  0.11460973  0.72697818     0.84700
C253        C  0.45587074  0.06671076  0.79326367     1.06300
H254        H  0.00010192  0.99968559  0.70651644     0.38100
O255        O  0.48294359  0.47860668  0.72567504    -1.10200
O256        O  0.49349099  0.43209380  0.77779959    -0.66800
Ni257      Ni  0.03473625  0.49616869  0.75230001     1.26300
O258        O  0.00174112  0.06934125  0.72360571    -0.67000
O259        O  0.05882516  0.46996527  0.72638588    -0.79300
C260        C  0.11931553  0.06443754  0.78689213     0.84100
O261        O  0.08744163  0.01814152  0.77974852    -0.66500
Ni262      Ni  0.43361387  0.40928708  0.71491065     1.27400
Ni263      Ni  0.45753504  0.00513222  0.74914552     1.26100
H264        H  0.49001603  0.99889033  0.79528472     0.38600
C265        C  0.12597210  0.22567454  0.59412687    -0.09600
C266        C  0.10079160  0.24537913  0.59276732     0.06600
C267        C  0.05869309  0.22221138  0.57414510    -0.03300
C268        C  0.04419548  0.18188364  0.55639344    -0.07800
C269        C  0.07090403  0.16375796  0.55669828     0.05700
C270        C  0.11168551  0.18549416  0.57637609    -0.02800
Br271      Br  0.14791385  0.16066950  0.58168109    -0.02500
H272        H  0.15727958  0.24187497  0.60905601     0.09700
H273        H  0.01200953  0.16482182  0.54208299     0.07700
Br274      Br  0.01680945  0.24060279  0.57309057    -0.02900
C275        C  0.25451138  0.35944169  0.57433487    -0.09600
C276        C  0.25334793  0.39503942  0.58807305     0.06600
C277        C  0.29541599  0.44788266  0.58177648    -0.03300
C278        C  0.33798303  0.46407870  0.56264199    -0.07800
C279        C  0.33903705  0.42842128  0.54848252     0.05700
C280        C  0.29637683  0.37534850  0.55468984    -0.02800
Br281      Br  0.29263486  0.32212405  0.03801414    -0.02500
H282        H  0.22240438  0.31879963  0.57874839     0.09700
H283        H  0.36918554  0.50497480  0.55744371     0.07700
Br284      Br  0.29463450  0.49963133  0.59569099    -0.02900
C285        C  0.11800072  0.46592827  0.58057399    -0.09600
C286        C  0.08597259  0.44142184  0.55608634     0.06600
C287        C  0.07550401  0.39664656  0.54632855    -0.03300
C288        C  0.09407852  0.37607957  0.56252529    -0.07800
C289        C  0.12160368  0.39799881  0.58893963     0.05700
C290        C  0.13692175  0.44579175  0.59617962    -0.02800
Br291      Br  0.18830296  0.48961051  0.62416393    -0.02500
H292        H  0.12944722  0.50189896  0.58763082     0.09700
H293        H  0.08617033  0.34229526  0.55461333     0.07700
Br294      Br  0.03752544  0.36194190  0.01108140    -0.02900
C295        C  0.13365386  0.23976490  0.67630999    -0.09600
C296        C  0.09884010  0.24245868  0.66269779     0.06600
C297        C  0.04573883  0.20137744  0.66907607    -0.03300
C298        C  0.02844601  0.15864021  0.68862747    -0.07800
C299        C  0.06337246  0.15640051  0.70274398     0.05700
C300        C  0.11662609  0.19746592  0.69608418    -0.02800
Br301      Br  0.16820734  0.19775773  0.71258860    -0.02500
H302        H  0.17445865  0.27079631  0.67156785     0.09700
H303        H  0.98748457  0.12823135  0.69407194     0.07700
Br304      Br  0.99526616  0.20358249  0.65422713    -0.02900
C305        C  0.31319533  0.44876744  0.69494460    -0.09600
C306        C  0.33063216  0.42143379  0.69505645     0.06600
C307        C  0.30861758  0.38062966  0.67541045    -0.03300
C308        C  0.26878397  0.36697384  0.65732993    -0.07800
C309        C  0.25002602  0.39312325  0.65815426     0.05700
C310        C  0.27376210  0.43535406  0.67663800    -0.02800
Br311      Br  0.25864882  0.47994843  0.67617107    -0.02500
H312        H  0.33066179  0.48119100  0.70904980     0.09700
H313        H  0.25240201  0.33570209  0.64240051     0.07700
Br314      Br  0.33313773  0.34413248  0.67030074    -0.02900
C315        C  0.12407882  0.40720162  0.68547821    -0.09600
C316        C  0.10036278  0.37755023  0.66010693     0.06600
C317        C  0.05269020  0.36275498  0.65304123    -0.03300
C318        C  0.03334526  0.38239875  0.66864403    -0.07800
C319        C  0.05956871  0.41630483  0.69215708     0.05700
C320        C  0.10574902  0.42854874  0.70057166    -0.02800
Br321      Br  0.14688102  0.47449800  0.73160361    -0.02500
H322        H  0.15813822  0.41538254  0.69303117     0.09700
H323        H  0.99685190  0.37037780  0.66219251     0.07700
Br324      Br  0.00861373  0.31206986  0.62479981    -0.02900
C325        C  0.44521125  0.10860762  0.92635688    -0.09600
C326        C  0.40934959  0.06363939  0.94548505     0.06600
C327        C  0.35836037  0.04398773  0.94972411    -0.03300
C328        C  0.34309687  0.06722909  0.93295146    -0.07800
C329        C  0.37796051  0.10956007  0.91164706     0.05700
C330        C  0.43005626  0.13198502  0.90975324    -0.02800
Br331      Br  0.48273858  0.19617547  0.88673713    -0.02500
H332        H  0.48497769  0.12510078  0.92391334     0.09700
H333        H  0.30349961  0.05117126  0.93574191     0.07700
Br334      Br  0.30905316  0.98679883  0.47892930    -0.02900
C335        C  0.36458626  0.24359799  0.93920609    -0.09600
C336        C  0.39469254  0.25138949  0.91300758     0.06600
C337        C  0.44481659  0.29981367  0.90761738    -0.03300
C338        C  0.45980865  0.34072572  0.92505150    -0.07800
C339        C  0.42644680  0.33378128  0.94868100     0.05700
C340        C  0.37980194  0.28396847  0.95683528    -0.03600
Br341      Br  0.33597091  0.26790365  0.99249400    -0.02500
H342        H  0.32813122  0.20620278  0.94595572     0.09700
H343        H  0.49728965  0.37832761  0.91971631     0.07700
Br344      Br  0.49660130  0.31170305  0.87971612    -0.02900
C345        C  0.15308071  0.03554237  0.93568854    -0.09600
C346        C  0.15156211  0.07114712  0.94950617     0.06600
C347        C  0.19177873  0.12408391  0.94162995    -0.03300
C348        C  0.23390994  0.14034397  0.92225251    -0.07800
C349        C  0.23706255  0.10507129  0.91007146     0.05700
C350        C  0.19529312  0.05216299  0.91599793    -0.02800
Br351      Br  0.19476861  0.00134252  0.89857440    -0.02500
H352        H  0.12231423  0.99463113  0.94117457     0.09700
H353        H  0.26409676  0.18091804  0.91634139     0.07700
Br354      Br  0.19048891  0.17592661  0.95541422    -0.02900
C355        C  0.38323060  0.04595526  0.82605524    -0.09600
C356        C  0.42855167  0.08207796  0.80735798     0.06600
C357        C  0.44949712  0.13362137  0.80429460    -0.03300
C358        C  0.42585222  0.14853244  0.82064084    -0.07800
C359        C  0.38242641  0.11334972  0.84102215     0.05700
C360        C  0.36030497  0.06114615  0.84311089    -0.02800
Br361      Br  0.29839495  0.00818283  0.86788561    -0.02500
H362        H  0.36665816  0.00612723  0.82826643     0.09700
H363        H  0.44308595  0.18842347  0.81858144     0.07700
Br364      Br  0.51048646  0.18520556  0.77816879    -0.02900
C365        C  0.43332945  0.27680748  0.81684684    -0.09600
C366        C  0.39583091  0.26010344  0.84067592     0.06600
C367        C  0.37755405  0.28700549  0.84344531    -0.03300
C368        C  0.39690328  0.32930119  0.82275249    -0.07800
C369        C  0.43479857  0.34601915  0.79936893     0.05700
C370        C  0.45349193  0.31978620  0.79673873    -0.02800
Br371      Br  0.50556331  0.34017696  0.76549626    -0.02500
H372        H  0.44770105  0.25683581  0.81410045     0.09700
H373        H  0.38154344  0.34861711  0.82451950     0.07700
Br374      Br  0.32368001  0.26650877  0.87299843    -0.02900
C375        C  0.22308985  0.13406495  0.84383177    -0.09600
C376        C  0.24639881  0.11274093  0.83986342     0.06600
C377        C  0.22931037  0.07731873  0.81712820    -0.03300
C378        C  0.18743352  0.06145787  0.80046527    -0.07800
C379        C  0.16353374  0.08214881  0.80485253     0.05700
C380        C  0.18233636  0.11949744  0.82661579    -0.02800
Br381      Br  0.15280890  0.15041692  0.83553919    -0.02500
H382        H  0.23659651  0.16236482  0.86047953     0.09700
H383        H  0.17394644  0.03332768  0.78370181     0.07700
Br384      Br  0.26096257  0.04900953  0.80757248    -0.02900
C385        C  0.34424961  0.66015703  0.34581724     0.45000
H386        H  0.34766433  0.66384335  0.32011178    -0.04000
C387        C  0.33610409  0.65179574  0.40593887     0.45100
H388        H  0.33226579  0.64712624  0.43159531    -0.04000
C389        C  0.36245602  0.63300748  0.36018194    -0.17700
C390        C  0.37420309  0.71244681  0.36040889    -0.17400
C391        C  0.28883446  0.62897827  0.35947768    -0.17800
C392        C  0.35909365  0.62976991  0.39192566    -0.17800
C393        C  0.37162318  0.70815618  0.39237016    -0.17300
C394        C  0.28448305  0.62502743  0.39126562    -0.17700
C395        C  0.15020447  0.84243945  0.15522447     0.45000
H396        H  0.14861734  0.84043510  0.18090975    -0.04000
C397        C  0.15397165  0.84583143  0.09503998     0.45100
H398        H  0.15618900  0.84719298  0.06936726    -0.04000
C399        C  0.20541614  0.87469110  0.13990528    -0.17700
C400        C  0.11969545  0.78915356  0.14237581    -0.17400
C401        C  0.12732863  0.86491326  0.14082239    -0.17800
C402        C  0.20702301  0.87540798  0.10816482    -0.17800
C403        C  0.12048384  0.79061689  0.11063956    -0.17300
C404        C  0.13258917  0.86992200  0.10884770    -0.17700
O405        O  0.40431399  0.88088449  0.46899833    -0.81300
O406        O  0.00888214  0.58817392  0.03049242    -0.66000
O407        O  0.47514220  0.98842992  0.47401903    -1.12600
C408        C  0.06800617  0.96636846  0.04085538     1.05600
O409        O  0.08883842  0.62039379  0.02601838    -0.79200
O410        O  0.12267671  0.57851846  0.49735137    -0.66800
Ni411      Ni  0.40619782  0.93824508  0.46227020     1.34900
C412        C  0.11082280  0.55230077  0.47411979     0.84300
O413        O  0.46290172  0.56147083  0.47692551    -0.79700
O414        O  0.40108031  0.49030617  0.45347445    -0.90000
C415        C  0.05529491  0.62193435  0.03700679     0.83900
O416        O  0.37123825  0.92130531  0.00195631    -0.68200
O417        O  0.09023089  0.01228045  0.04749440    -0.87500
C418        C  0.38145941  0.94817198  0.02464241     0.84700
C419        C  0.42534628  0.53684249  0.45969433     1.06300
H420        H  0.49640905  0.99533245  0.04408322     0.38100
O421        O  0.01770311  0.51365965  0.02520441    -1.10200
O422        O  0.06643933  0.50911563  0.47190221    -0.66800
Ni423      Ni  0.00321088  0.96439562  0.49754922     1.26300
O424        O  0.42520870  0.99262630  0.02664408    -0.67000
O425        O  0.03207535  0.94216441  0.02236414    -0.79300
C426        C  0.43961236  0.87894973  0.46311770     0.84100
O427        O  0.48549589  0.91482087  0.46934354    -0.66500
Ni428      Ni  0.08692721  0.56436991  0.03622574     1.27400
Ni429      Ni  0.49004182  0.53802399  0.00180557     1.26100
H430        H  0.49661588  0.50703511  0.45515256     0.38600
O431        O  0.11440826  0.59651186  0.27793923    -0.81300
O432        O  0.40648493  0.98458870  0.22081092    -0.66000
O433        O  0.00818461  0.52142751  0.27659984    -1.12600
C434        C  0.03440950  0.93334624  0.20838956     1.05600
O435        O  0.37619034  0.90512857  0.22529435    -0.79200
O436        O  0.42200872  0.87455137  0.25398514    -0.66800
Ni437      Ni  0.05588730  0.59011566  0.28913395     1.34900
C438        C  0.45077897  0.88708143  0.27599140     0.84300
O439        O  0.43358515  0.53225226  0.27389173    -0.79700
O440        O  0.50140364  0.58975627  0.30126155    -0.90000
C441        C  0.37332767  0.93796693  0.21446250     0.83900
O442        O  0.06831431  0.62673803  0.25098726    -0.68200
O443        O  0.98739574  0.90875462  0.20320894    -0.87500
C444        C  0.04369854  0.61466524  0.22694559     0.84700
C445        C  0.45601022  0.56688432  0.29323859     1.06300
H446        H  0.00018505  0.49972790  0.20654987     0.38100
O447        O  0.48302157  0.97866731  0.22571361    -1.10200
O448        O  0.49353615  0.93216085  0.27786298    -0.66800
Ni449      Ni  0.03480045  0.99622637  0.25235089     1.26300
O450        O  0.00184293  0.56940689  0.22360644    -0.67000
O451        O  0.05889885  0.97000739  0.22646040    -0.79300
C452        C  0.11936540  0.56448468  0.28693122     0.84100
O453        O  0.08747312  0.51818200  0.27981017    -0.66500
Ni454      Ni  0.43367494  0.90933494  0.21497811     1.27400
Ni455      Ni  0.45762878  0.50522709  0.24916344     1.26100
H456        H  0.49010269  0.49901468  0.29532014     0.38600
C457        C  0.12613992  0.72582021  0.09406125    -0.09600
C458        C  0.10090357  0.74546854  0.09274963     0.06600
C459        C  0.05873855  0.72223467  0.07417843    -0.03300
C460        C  0.04424529  0.68191587  0.05641638    -0.07800
C461        C  0.07102351  0.66386187  0.05666090     0.05700
C462        C  0.11186706  0.68565772  0.07629663    -0.02800
Br463      Br  0.14820386  0.66093881  0.08153512    -0.02500
H464        H  0.15746618  0.74203374  0.10897525     0.09700
H465        H  0.01200319  0.66480124  0.04214821     0.07700
Br466      Br  0.01675762  0.74051703  0.07322089    -0.02900
C467        C  0.25472944  0.85957087  0.07449127    -0.09600
C468        C  0.25342543  0.89516405  0.08809279     0.06600
C469        C  0.29538864  0.94801388  0.08169641    -0.03300
C470        C  0.33798025  0.96422641  0.06258087    -0.07800
C471        C  0.33915916  0.92856591  0.04854955     0.05700
C472        C  0.29662538  0.87548808  0.05487644    -0.02800
Br473      Br  0.29212805  0.82196285  0.53760369    -0.02500
H474        H  0.22272025  0.81892500  0.07899671     0.09700
H475        H  0.36909597  0.00511842  0.05729414     0.07700
Br476      Br  0.29442973  0.99971659  0.09546512    -0.02900
C477        C  0.11794470  0.96591803  0.08062096    -0.09600
C478        C  0.08592586  0.94140618  0.05613130     0.06600
C479        C  0.07541777  0.89659788  0.04640354    -0.03300
C480        C  0.09399959  0.87604310  0.06260695    -0.07800
C481        C  0.12156019  0.89799673  0.08900624     0.05700
C482        C  0.13685731  0.94578503  0.09624242    -0.02800
Br483      Br  0.18819146  0.98961529  0.12424571    -0.02500
H484        H  0.12939026  0.00189308  0.08766785     0.09700
H485        H  0.08606474  0.84223560  0.05471417     0.07700
Br486      Br  0.03769705  0.86206959  0.51096647    -0.02900
C487        C  0.13376427  0.73971026  0.17619446    -0.09600
C488        C  0.09895041  0.74248583  0.16266909     0.06600
C489        C  0.04585119  0.70146009  0.16910576    -0.03300
C490        C  0.02856000  0.65871621  0.18864509    -0.07800
C491        C  0.06348872  0.65641472  0.20269101     0.05700
C492        C  0.11673733  0.69740006  0.19595640    -0.02800
Br493      Br  0.16829452  0.69755432  0.21234619    -0.02500
H494        H  0.17456415  0.77068605  0.17139961     0.09700
H495        H  0.98760446  0.62835902  0.19414357     0.07700
Br496      Br  0.99538487  0.70374601  0.15435814    -0.02900
C497        C  0.31340430  0.94898467  0.19485975    -0.09600
C498        C  0.33074793  0.92156243  0.19504445     0.06600
C499        C  0.30863309  0.88065843  0.17546616    -0.03300
C500        C  0.26880956  0.86700852  0.15737868    -0.07800
C501        C  0.25011742  0.89321981  0.15815251     0.05700
C502        C  0.27394586  0.93554190  0.17656462    -0.02800
Br503      Br  0.25886789  0.98016635  0.17602990    -0.02500
H504        H  0.33094189  0.98148003  0.20891025     0.09700
H505        H  0.25238451  0.83569096  0.14248273     0.07700
Br506      Br  0.33296284  0.84396731  0.17047181    -0.02900
C507        C  0.12417838  0.90725744  0.18552524    -0.09600
C508        C  0.10040422  0.87754709  0.16018062     0.06600
C509        C  0.05270298  0.86271722  0.15315099    -0.03300
C510        C  0.03335500  0.88233911  0.16877771    -0.07800
C511        C  0.05961667  0.91628938  0.19226486     0.05700
C512        C  0.10585126  0.92860313  0.20063037    -0.02800
Br513      Br  0.14709781  0.97470244  0.23157596    -0.02500
H514        H  0.15830877  0.91552777  0.19302465     0.09700
H515        H  0.99683864  0.87028699  0.16235174     0.07700
Br516      Br  0.00861552  0.81206955  0.12489504    -0.02900
C517        C  0.44520657  0.60859651  0.42636204    -0.09600
C518        C  0.40933795  0.56361798  0.44547797     0.06600
C519        C  0.35834768  0.54396213  0.44971387    -0.03300
C520        C  0.34308407  0.56719933  0.43293587    -0.07800
C521        C  0.37796133  0.60955067  0.41164579     0.05700
C522        C  0.43005954  0.63198661  0.40976762    -0.02800
Br523      Br  0.48275969  0.69621853  0.38679950    -0.02500
H524        H  0.48497540  0.62509541  0.42392701     0.09700
H525        H  0.30348508  0.55113781  0.43572019     0.07700
Br526      Br  0.30905077  0.48680314  0.97892288    -0.02900
C527        C  0.36466310  0.74362408  0.43923449    -0.09600
C528        C  0.39473594  0.75139880  0.41302367     0.06600
C529        C  0.44486028  0.79981323  0.40761212    -0.03300
C530        C  0.45986693  0.84074901  0.42502400    -0.07800
C531        C  0.42652264  0.83382120  0.44865919     0.05700
C532        C  0.37990095  0.78401230  0.45684878    -0.03600
Br533      Br  0.33614917  0.76798254  0.49254395    -0.02500
H534        H  0.32822354  0.70622971  0.44600869     0.09700
H535        H  0.49734245  0.87834899  0.41967117     0.07700
Br536      Br  0.49662563  0.81164155  0.37972395    -0.02900
C537        C  0.15307499  0.53557997  0.43569176    -0.09600
C538        C  0.15159047  0.57118871  0.44953898     0.06600
C539        C  0.19184679  0.62412804  0.44169864    -0.03300
C540        C  0.23397524  0.64037926  0.42232174    -0.07800
C541        C  0.23709073  0.60509753  0.41010997     0.05700
C542        C  0.19528764  0.55219309  0.41600511    -0.02800
Br543      Br  0.19472012  0.50136646  0.39854511    -0.02500
H544        H  0.12227917  0.49466703  0.44115102     0.09700
H545        H  0.26418530  0.68095417  0.41643134     0.07700
Br546      Br  0.19061868  0.67598940  0.45553178    -0.02900
C547        C  0.38332144  0.54608354  0.32600112    -0.09600
C548        C  0.42868437  0.58224256  0.30734259     0.06600
C549        C  0.44964586  0.63379481  0.30432600    -0.03300
C550        C  0.42597318  0.64867254  0.32067932    -0.07800
C551        C  0.38249968  0.61344439  0.34101981     0.05700
C552        C  0.36036825  0.56124002  0.34306383    -0.02800
Br553      Br  0.29841200  0.50824069  0.36779359    -0.02500
H554        H  0.36673531  0.50624994  0.32817794     0.09700
H555        H  0.44321540  0.68856766  0.31865621     0.07700
Br556      Br  0.51067556  0.68542937  0.27824302    -0.02900
C557        C  0.43333859  0.77687942  0.31689961    -0.09600
C558        C  0.39580547  0.76012603  0.34071354     0.06600
C559        C  0.37750030  0.78700201  0.34349078    -0.03300
C560        C  0.39685235  0.82931748  0.32281418    -0.07800
C561        C  0.43480066  0.84609758  0.29945318     0.05700
C562        C  0.45352731  0.81989588  0.29682344    -0.02800
Br563      Br  0.50569270  0.84038723  0.26562644    -0.02500
H564        H  0.44773125  0.75692776  0.31414806     0.09700
H565        H  0.38146561  0.84860788  0.32458088     0.07700
Br566      Br  0.32360646  0.76645917  0.37304271    -0.02900
C567        C  0.22307281  0.63405015  0.34389451    -0.09600
C568        C  0.24640839  0.61275671  0.33990245     0.06600
C569        C  0.22935768  0.57737911  0.31714339    -0.03300
C570        C  0.18748075  0.56151663  0.30048606    -0.07800
C571        C  0.16356303  0.58218191  0.30489424     0.05700
C572        C  0.18233313  0.61949792  0.32667292    -0.02800
Br573      Br  0.15279004  0.65040358  0.33559272    -0.02500
H574        H  0.23655541  0.66232216  0.36055804     0.09700
H575        H  0.17401559  0.53341654  0.28370477     0.07700
Br576      Br  0.26107141  0.54915053  0.30753145    -0.02900
C577        C  0.34424258  0.66012916  0.84579720     0.45000
H578        H  0.34766232  0.66380564  0.82009164    -0.04000
C579        C  0.33608154  0.65178524  0.90591816     0.45100
H580        H  0.33223274  0.64711933  0.93157479    -0.04000
C581        C  0.36242600  0.63296433  0.86017462    -0.17700
C582        C  0.37420831  0.71242898  0.86038449    -0.17400
C583        C  0.28882380  0.62896367  0.85944703    -0.17800
C584        C  0.35907454  0.62975369  0.89191786    -0.17800
C585        C  0.37160859  0.70814708  0.89234854    -0.17300
C586        C  0.28446451  0.62501488  0.89123479    -0.17700
C587        C  0.15013525  0.84241083  0.65520408     0.45000
H588        H  0.14854250  0.84042864  0.68088922    -0.04000
C589        C  0.15391066  0.84574581  0.59502119     0.45100
H590        H  0.15612973  0.84708189  0.56934931    -0.04000
C591        C  0.20534494  0.87461586  0.63989206    -0.17700
C592        C  0.11959502  0.78910761  0.64237858    -0.17400
C593        C  0.12729534  0.86490250  0.64077447    -0.17800
C594        C  0.20695438  0.87530068  0.60815078    -0.17800
C595        C  0.12038730  0.79054318  0.61064127    -0.17300
C596        C  0.13257086  0.86988904  0.60880028    -0.17700
O597        O  0.40426214  0.88085926  0.96904419    -0.81300
O598        O  0.00877869  0.58806978  0.53053051    -0.66000
O599        O  0.47513765  0.98842800  0.97403038    -1.12600
C600        C  0.06801474  0.96636333  0.54083654     1.05600
O601        O  0.08875076  0.62032924  0.52605049    -0.79200
O602        O  0.12269140  0.57851785  0.99731846    -0.66800
Ni603      Ni  0.40615996  0.93823429  0.96232964     1.34900
C604        C  0.11081265  0.55227221  0.97409821     0.84300
O605        O  0.46297671  0.56153211  0.97689587    -0.79700
O606        O  0.40103879  0.49029912  0.95354300    -0.90000
C607        C  0.05519057  0.62184191  0.53704413     0.83900
O608        O  0.37118273  0.92127041  0.50186859    -0.68200
O609        O  0.09019780  0.01225236  0.54750502    -0.87500
C610        C  0.38137226  0.94807056  0.52458653     0.84700
C611        C  0.42536210  0.53686896  0.95970983     1.06300
H612        H  0.49636466  0.99525978  0.54407285     0.38100
O613        O  0.01765894  0.51360632  0.52520876    -1.10200
O614        O  0.06642388  0.50907873  0.97190193    -0.66800
Ni615      Ni  0.00320393  0.96439844  0.99756737     1.26300
O616        O  0.42512974  0.99249946  0.52663647    -0.67000
O617        O  0.03209654  0.94216605  0.52233588    -0.79300
C618        C  0.43954867  0.87890865  0.96315910     0.84100
O619        O  0.48543767  0.91477396  0.96938306    -0.66500
Ni620      Ni  0.08686889  0.56432507  0.53624904     1.27400
Ni621      Ni  0.48998305  0.53796529  0.50182087     1.26100
H622        H  0.49659453  0.50700065  0.95514532     0.38600
O623        O  0.11432039  0.59644864  0.77792845    -0.81300
O624        O  0.40637393  0.98447873  0.72080552    -0.66000
O625        O  0.00809940  0.52132803  0.77657339    -1.12600
C626        C  0.03435350  0.93334429  0.70828493     1.05600
O627        O  0.37611373  0.90502837  0.72528359    -0.79200
O628        O  0.42201337  0.87445623  0.75388628    -0.66800
Ni629      Ni  0.05576360  0.58998572  0.78915058     1.34900
C630        C  0.45076922  0.88699606  0.77590357     0.84300
O631        O  0.43347154  0.53212255  0.77388952    -0.79700
O632        O  0.50124587  0.58955510  0.80131004    -0.90000
C633        C  0.37322313  0.93785219  0.71446297     0.83900
O634        O  0.06815070  0.62665393  0.75103232    -0.68200
O635        O  0.98735190  0.90877059  0.70308415    -0.87500
C636        C  0.04356527  0.61460975  0.72697821     0.84700
C637        C  0.45587043  0.56671031  0.79326381     1.06300
H638        H  0.00010204  0.49968564  0.70651649     0.38100
O639        O  0.48294366  0.97860689  0.72567503    -1.10200
O640        O  0.49349064  0.93209379  0.77779961    -0.66800
Ni641      Ni  0.03473619  0.99616868  0.75229995     1.26300
O642        O  0.00174121  0.56934125  0.72360571    -0.67000
O643        O  0.05882504  0.96996521  0.72638580    -0.79300
C644        C  0.11931559  0.56443760  0.78689212     0.84100
O645        O  0.08744166  0.51814153  0.77974860    -0.66500
Ni646      Ni  0.43361395  0.90928741  0.71491044     1.27400
Ni647      Ni  0.45753496  0.50513202  0.74914552     1.26100
H648        H  0.49001586  0.49888997  0.79528474     0.38600
C649        C  0.12597230  0.72567469  0.59412682    -0.09600
C650        C  0.10079181  0.74537930  0.59276723     0.06600
C651        C  0.05869343  0.72221163  0.57414491    -0.03300
C652        C  0.04419591  0.68188397  0.55639322    -0.07800
C653        C  0.07090445  0.66375828  0.55669811     0.05700
C654        C  0.11168582  0.68549440  0.57637599    -0.02800
Br655      Br  0.14791411  0.66066970  0.58168105    -0.02500
H656        H  0.15727967  0.74187504  0.60905603     0.09700
H657        H  0.01201002  0.66482219  0.54208272     0.07700
Br658      Br  0.01680975  0.74060301  0.57309031    -0.02900
C659        C  0.25451148  0.85944176  0.57433499    -0.09600
C660        C  0.25334801  0.89503951  0.58807311     0.06600
C661        C  0.29541599  0.94788275  0.58177644    -0.03300
C662        C  0.33798297  0.96407876  0.56264190    -0.07800
C663        C  0.33903700  0.92842132  0.54848247     0.05700
C664        C  0.29637684  0.87534854  0.55468988    -0.02800
Br665      Br  0.29263462  0.82212402  0.03801392    -0.02500
H666        H  0.22240453  0.81879970  0.57874857     0.09700
H667        H  0.36918543  0.00497485  0.55744355     0.07700
Br668      Br  0.29463442  0.99963138  0.59569093    -0.02900
C669        C  0.11800072  0.96592829  0.58057389    -0.09600
C670        C  0.08597264  0.94142185  0.55608622     0.06600
C671        C  0.07550408  0.89664656  0.54632846    -0.03300
C672        C  0.09407862  0.87607962  0.56252522    -0.07800
C673        C  0.12160369  0.89799884  0.58893960     0.05700
C674        C  0.13692171  0.94579176  0.59617957    -0.02800
Br675      Br  0.18830278  0.98961049  0.62416396    -0.02500
H676        H  0.12944720  0.00189897  0.58763070     0.09700
H677        H  0.08617053  0.84229538  0.55461325     0.07700
Br678      Br  0.03752560  0.86194211  0.01108132    -0.02900
C679        C  0.13365393  0.73976513  0.67631017    -0.09600
C680        C  0.09884017  0.74245866  0.66269772     0.06600
C681        C  0.04573889  0.70137716  0.66907577    -0.03300
C682        C  0.02844609  0.65863997  0.68862720    -0.07800
C683        C  0.06337254  0.65640053  0.70274398     0.05700
C684        C  0.11662617  0.69746616  0.69608438    -0.02800
Br685      Br  0.16820748  0.69775830  0.71258907    -0.02500
H686        H  0.17445873  0.77079671  0.67156821     0.09700
H687        H  0.98748463  0.62823093  0.69407149     0.07700
Br688      Br  0.99526611  0.70358177  0.65422646    -0.02900
C689        C  0.31319533  0.94876757  0.69494464    -0.09600
C690        C  0.33063218  0.92143393  0.69505651     0.06600
C691        C  0.30861762  0.88062979  0.67541052    -0.03300
C692        C  0.26878401  0.86697394  0.65733000    -0.07800
C693        C  0.25002604  0.89312334  0.65815431     0.05700
C694        C  0.27376210  0.93535417  0.67663804    -0.02800
Br695      Br  0.25864881  0.97994853  0.67617108    -0.02500
H696        H  0.33066179  0.98119113  0.70904984     0.09700
H697        H  0.25240204  0.83570218  0.64240059     0.07700
Br698      Br  0.33313777  0.84413260  0.67030084    -0.02900
C699        C  0.12407869  0.90720151  0.68547821    -0.09600
C700        C  0.10036270  0.87755015  0.66010692     0.06600
C701        C  0.05269010  0.86275485  0.65304121    -0.03300
C702        C  0.03334510  0.88239857  0.66864402    -0.07800
C703        C  0.05956853  0.91630466  0.69215708     0.05700
C704        C  0.10574884  0.92854858  0.70057167    -0.02800
Br705      Br  0.14688081  0.97449783  0.73160363    -0.02500
H706        H  0.15813812  0.91538248  0.69303117     0.09700
H707        H  0.99685173  0.87037759  0.66219250     0.07700
Br708      Br  0.00861370  0.81206970  0.62479978    -0.02900
C709        C  0.44521125  0.60860774  0.92635683    -0.09600
C710        C  0.40934959  0.56363951  0.94548501     0.06600
C711        C  0.35836041  0.54398795  0.94972415    -0.03300
C712        C  0.34309691  0.56722933  0.93295151    -0.07800
C713        C  0.37796053  0.60956023  0.91164706     0.05700
C714        C  0.43005626  0.63198515  0.90975320    -0.02800
Br715      Br  0.48273852  0.69617556  0.88673702    -0.02500
H716        H  0.48497767  0.62510086  0.92391325     0.09700
H717        H  0.30349967  0.55117155  0.93574199     0.07700
Br718      Br  0.30905333  0.48679890  0.47892935    -0.02900
C719        C  0.36458630  0.74359811  0.93920598    -0.09600
C720        C  0.39469257  0.75138965  0.91300745     0.06600
C721        C  0.44481660  0.79981387  0.90761724    -0.03300
C722        C  0.45980866  0.84072588  0.92505142    -0.07800
C723        C  0.42644683  0.83378135  0.94868099     0.05700
C724        C  0.37980199  0.78396852  0.95683524    -0.03600
Br725      Br  0.33597096  0.76790355  0.99249401    -0.02500
H726        H  0.32813125  0.70620289  0.94595559     0.09700
H727        H  0.49728963  0.87832778  0.91971624     0.07700
Br728      Br  0.49660129  0.81170337  0.87971590    -0.02900
C729        C  0.15308064  0.53554247  0.93568830    -0.09600
C730        C  0.15156201  0.57114718  0.94950597     0.06600
C731        C  0.19177862  0.62408398  0.94162977    -0.03300
C732        C  0.23390990  0.64034410  0.92225237    -0.07800
C733        C  0.23706257  0.60507144  0.91007133     0.05700
C734        C  0.19529311  0.55216314  0.91599772    -0.02800
Br735      Br  0.19476861  0.50134272  0.89857415    -0.02500
H736        H  0.12231416  0.49463122  0.94117428     0.09700
H737        H  0.26409673  0.68091818  0.91634128     0.07700
Br738      Br  0.19048868  0.67592661  0.95541402    -0.02900
C739        C  0.38323041  0.54595500  0.82605542    -0.09600
C740        C  0.42855137  0.58207756  0.80735805     0.06600
C741        C  0.44949684  0.63362097  0.80429453    -0.03300
C742        C  0.42585205  0.64853219  0.82064074    -0.07800
C743        C  0.38242634  0.61334962  0.84102216     0.05700
C744        C  0.36030487  0.56114604  0.84311102    -0.02800
Br745      Br  0.29839490  0.50818288  0.86788582    -0.02500
H746        H  0.36665795  0.50612697  0.82826671     0.09700
H747        H  0.44308580  0.68842323  0.81858123     0.07700
Br748      Br  0.51048610  0.68520495  0.77816861    -0.02900
C749        C  0.43332927  0.77680735  0.81684659    -0.09600
C750        C  0.39583087  0.76010344  0.84067575     0.06600
C751        C  0.37755404  0.78700551  0.84344516    -0.03300
C752        C  0.39690317  0.82930113  0.82275228    -0.07800
C753        C  0.43479834  0.84601898  0.79936866     0.05700
C754        C  0.45349167  0.81978600  0.79673845    -0.02800
Br755      Br  0.50556306  0.84017680  0.76549598    -0.02500
H756        H  0.44770084  0.75683566  0.81410019     0.09700
H757        H  0.38154339  0.84861709  0.82451932     0.07700
Br758      Br  0.32368023  0.76650903  0.87299840    -0.02900
C759        C  0.22309020  0.63406533  0.84383156    -0.09600
C760        C  0.24639894  0.61274107  0.83986333     0.06600
C761        C  0.22931032  0.57731866  0.81712823    -0.03300
C762        C  0.18743344  0.56145778  0.80046533    -0.07800
C763        C  0.16353387  0.58214895  0.80485247     0.05700
C764        C  0.18233673  0.61949786  0.82661557    -0.02800
Br765      Br  0.15280973  0.65041786  0.83553871    -0.02500
H766        H  0.23659700  0.66236534  0.86047924     0.09700
H767        H  0.17394618  0.53332738  0.78370200     0.07700
Br768      Br  0.26096233  0.54900923  0.80757265    -0.02900
C769        C  0.84424953  0.16015701  0.34581722     0.45000
H770        H  0.84766424  0.16384332  0.32011176    -0.04000
C771        C  0.83610405  0.15179575  0.40593885     0.45100
H772        H  0.83226576  0.14712623  0.43159529    -0.04000
C773        C  0.86245590  0.13300742  0.36018191    -0.17700
C774        C  0.87420307  0.21244681  0.36040887    -0.17400
C775        C  0.78883440  0.12897829  0.35947767    -0.17800
C776        C  0.85909353  0.12976985  0.39192563    -0.17800
C777        C  0.87162318  0.20815619  0.39237014    -0.17300
C778        C  0.78448301  0.12502749  0.39126562    -0.17700
C779        C  0.65020452  0.34243962  0.15522448     0.45000
H780        H  0.64861741  0.34043529  0.18090976    -0.04000
C781        C  0.65397166  0.34583157  0.09503999     0.45100
H782        H  0.65618902  0.34719311  0.06936728    -0.04000
C783        C  0.70541617  0.37469116  0.13990529    -0.17700
C784        C  0.61969540  0.28915370  0.14237583    -0.17400
C785        C  0.62732879  0.36491353  0.14082240    -0.17800
C786        C  0.70702301  0.37540803  0.10816483    -0.17800
C787        C  0.62048377  0.29061702  0.11063958    -0.17300
C788        C  0.63258930  0.36992225  0.10884771    -0.17700
O789        O  0.90431400  0.38088450  0.46899830    -0.81300
O790        O  0.50888224  0.08817400  0.03049249    -0.66000
O791        O  0.97514226  0.48842992  0.47401905    -1.12600
C792        C  0.56800627  0.46636857  0.04085524     1.05600
O793        O  0.58883855  0.12039390  0.02601854    -0.79200
O794        O  0.62267669  0.07851850  0.49735144    -0.66800
Ni795      Ni  0.90619788  0.43824513  0.46227022     1.34900
C796        C  0.61082282  0.05230089  0.47411981     0.84300
O797        O  0.96290124  0.06147050  0.47692563    -0.79700
O798        O  0.90108037  0.99030610  0.45347414    -0.90000
C799        C  0.55529499  0.12193443  0.03700691     0.83900
O800        O  0.87123816  0.42130519  0.00195628    -0.68200
O801        O  0.59023104  0.51228060  0.04749421    -0.87500
C802        C  0.88145929  0.44817191  0.02464235     0.84700
C803        C  0.92534608  0.03684229  0.45969423     1.06300
H804        H  0.99640892  0.49533236  0.04408314     0.38100
O805        O  0.51770324  0.01365974  0.02520449    -1.10200
O806        O  0.56643935  0.00911578  0.47190218    -0.66800
Ni807      Ni  0.50321091  0.46439563  0.49754931     1.26300
O808        O  0.92520857  0.49262625  0.02664399    -0.67000
O809        O  0.53207540  0.44216446  0.02236403    -0.79300
C810        C  0.93961236  0.37894971  0.46311772     0.84100
O811        O  0.98549587  0.41482081  0.46934362    -0.66500
Ni812      Ni  0.58692734  0.06436999  0.03622583     1.27400
Ni813      Ni  0.99004189  0.03802405  0.00180561     1.26100
H814        H  0.99661583  0.00703521  0.45515252     0.38600
O815        O  0.61440818  0.09651190  0.27793919    -0.81300
O816        O  0.90648483  0.48458860  0.22081104    -0.66000
O817        O  0.50818454  0.02142745  0.27659980    -1.12600
C818        C  0.53440955  0.43334638  0.20838951     1.05600
O819        O  0.87619038  0.40512852  0.22529438    -0.79200
O820        O  0.92200895  0.37455131  0.25398492    -0.66800
Ni821      Ni  0.55588716  0.09011555  0.28913401     1.34900
C822        C  0.95077898  0.38708137  0.27599131     0.84300
O823        O  0.93358523  0.03225235  0.27389171    -0.79700
O824        O  0.00140353  0.08975602  0.30126176    -0.90000
C825        C  0.87332761  0.43796683  0.21446259     0.83900
O826        O  0.56831408  0.12673809  0.25098740    -0.68200
O827        O  0.48739583  0.40875482  0.20320883    -0.87500
C828        C  0.54369852  0.11466533  0.22694564     0.84700
C829        C  0.95601019  0.06688422  0.29323869     1.06300
H830        H  0.50018498  0.99972779  0.20654975     0.38100
O831        O  0.98302163  0.47866739  0.22571364    -1.10200
O832        O  0.99353603  0.43216085  0.27786303    -0.66800
Ni833      Ni  0.53480043  0.49622639  0.25235093     1.26300
O834        O  0.50184306  0.06940692  0.22360637    -0.67000
O835        O  0.55889881  0.47000740  0.22646046    -0.79300
C836        C  0.61936539  0.06448477  0.28693117     0.84100
O837        O  0.58747316  0.01818209  0.27981009    -0.66500
Ni838      Ni  0.93367508  0.40933509  0.21497799     1.27400
Ni839      Ni  0.95762881  0.00522711  0.24916343     1.26100
H840        H  0.99010248  0.99901436  0.29532029     0.38600
C841        C  0.62613980  0.22582027  0.09406139    -0.09600
C842        C  0.60090353  0.24546867  0.09274966     0.06600
C843        C  0.55873862  0.22223487  0.07417837    -0.03300
C844        C  0.54424538  0.18191603  0.05641635    -0.07800
C845        C  0.57102352  0.16386195  0.05666100     0.05700
C846        C  0.61186696  0.18565775  0.07629682    -0.02800
Br847      Br  0.64820360  0.16093870  0.08153550    -0.02500
H848        H  0.65746599  0.24203377  0.10897545     0.09700
H849        H  0.51200337  0.16480144  0.04214812     0.07700
Br850      Br  0.51675780  0.24051734  0.07322065    -0.02900
C851        C  0.75472941  0.35957085  0.07449130    -0.09600
C852        C  0.75342540  0.39516406  0.08809279     0.06600
C853        C  0.79538855  0.44801389  0.08169632    -0.03300
C854        C  0.83798012  0.46422640  0.06258075    -0.07800
C855        C  0.83915905  0.42856587  0.04854947     0.05700
C856        C  0.79662530  0.37548804  0.05487643    -0.02800
Br857      Br  0.79212842  0.32196295  0.53760391    -0.02500
H858        H  0.72272025  0.31892499  0.07899679     0.09700
H859        H  0.86909580  0.50511840  0.05729396     0.07700
Br860      Br  0.79442960  0.49971659  0.09546500    -0.02900
C861        C  0.61794473  0.46591819  0.08062091    -0.09600
C862        C  0.58592594  0.44140632  0.05613122     0.06600
C863        C  0.57541787  0.39659801  0.04640351    -0.03300
C864        C  0.59399972  0.37604329  0.06260695    -0.07800
C865        C  0.62156028  0.39799695  0.08900625     0.05700
C866        C  0.63685735  0.44578524  0.09624240    -0.02800
Br867      Br  0.68819147  0.48961558  0.12424569    -0.02500
H868        H  0.62939025  0.50189324  0.08766776     0.09700
H869        H  0.58606495  0.34223584  0.05471417     0.07700
Br870      Br  0.53769717  0.36206969  0.51096649    -0.02900
C871        C  0.63376425  0.23971064  0.17619473    -0.09600
C872        C  0.59895037  0.24248597  0.16266914     0.06600
C873        C  0.54585115  0.20146003  0.16910563    -0.03300
C874        C  0.52855999  0.15871614  0.18864496    -0.07800
C875        C  0.56348873  0.15641488  0.20269109     0.05700
C876        C  0.61673734  0.19740047  0.19595669    -0.02800
Br877      Br  0.66829462  0.19755516  0.21234681    -0.02500
H878        H  0.67456412  0.27068660  0.17140006     0.09700
H879        H  0.48760444  0.12835879  0.19414328     0.07700
Br880      Br  0.49538475  0.20374570  0.15435786    -0.02900
C881        C  0.81340435  0.44898469  0.19485974    -0.09600
C882        C  0.83074785  0.42156231  0.19504453     0.06600
C883        C  0.80863289  0.38065822  0.17546630    -0.03300
C884        C  0.76880944  0.36700841  0.15737877    -0.07800
C885        C  0.75011745  0.39321984  0.15815251     0.05700
C886        C  0.77394597  0.43554198  0.17656458    -0.02800
Br887      Br  0.75886815  0.48016656  0.17602973    -0.02500
H888        H  0.83094201  0.48148011  0.20891020     0.09700
H889        H  0.75238433  0.33569080  0.14248285     0.07700
Br890      Br  0.83296236  0.34396683  0.17047209    -0.02900
C891        C  0.62417860  0.40725784  0.18552517    -0.09600
C892        C  0.60040439  0.37754735  0.16018062     0.06600
C893        C  0.55270309  0.36271734  0.15315102    -0.03300
C894        C  0.53335506  0.38233921  0.16877770    -0.07800
C895        C  0.55961677  0.41628959  0.19226480     0.05700
C896        C  0.60585145  0.42860351  0.20063027    -0.02800
Br897      Br  0.64709809  0.47470304  0.23157576    -0.02500
H898        H  0.65830907  0.41552829  0.19302456     0.09700
H899        H  0.49683865  0.37028697  0.16235176     0.07700
Br900      Br  0.50861562  0.31206949  0.12489515    -0.02900
C901        C  0.94520641  0.10859640  0.42636202    -0.09600
C902        C  0.90933776  0.06361778  0.44547787     0.06600
C903        C  0.85834744  0.04396185  0.44971371    -0.03300
C904        C  0.84308386  0.06719909  0.43293574    -0.07800
C905        C  0.87796117  0.10955055  0.41164575     0.05700
C906        C  0.93005939  0.13198654  0.40976762    -0.02800
Br907      Br  0.98275953  0.19621854  0.38679958    -0.02500
H908        H  0.98497526  0.12509536  0.42392704     0.09700
H909        H  0.80348484  0.05113752  0.43572003     0.07700
Br910      Br  0.80905084  0.98680328  0.97892297    -0.02900
C911        C  0.86466316  0.24362408  0.43923452    -0.09600
C912        C  0.89473597  0.25139881  0.41302367     0.06600
C913        C  0.94486030  0.29981325  0.40761211    -0.03300
C914        C  0.95986695  0.34074902  0.42502402    -0.07800
C915        C  0.92652267  0.33382120  0.44865922     0.05700
C916        C  0.87990101  0.28401229  0.45684881    -0.03600
Br917      Br  0.83614923  0.26798254  0.49254398    -0.02500
H918        H  0.82822363  0.20622970  0.44600873     0.09700
H919        H  0.99734246  0.37834901  0.41967118     0.07700
Br920      Br  0.99662563  0.31164162  0.37972390    -0.02900
C921        C  0.65307499  0.03558014  0.43569178    -0.09600
C922        C  0.65159054  0.07118889  0.44953904     0.06600
C923        C  0.69184697  0.12412823  0.44169878    -0.03300
C924        C  0.73397535  0.14037941  0.42232181    -0.07800
C925        C  0.73709074  0.10509765  0.41010998     0.05700
C926        C  0.69528763  0.05219322  0.41600514    -0.02800
Br927      Br  0.69472007  0.00136653  0.39854520    -0.02500
H928        H  0.62227914  0.99466720  0.44115102     0.09700
H929        H  0.76418545  0.18095432  0.41643143     0.07700
Br930      Br  0.69061921  0.17598969  0.45553218    -0.02900
C931        C  0.88332131  0.04608345  0.32600112    -0.09600
C932        C  0.92868434  0.08224248  0.30734267     0.06600
C933        C  0.94964590  0.13379476  0.30432613    -0.03300
C934        C  0.92597318  0.14867249  0.32067939    -0.07800
C935        C  0.88249957  0.11344431  0.34101979     0.05700
C936        C  0.86036807  0.06123993  0.34306378    -0.02800
Br937      Br  0.79841175  0.00824059  0.36779348    -0.02500
H938        H  0.86673512  0.00624983  0.32817791     0.09700
H939        H  0.94321546  0.18856763  0.31865632     0.07700
Br940      Br  0.01067580  0.18542938  0.27824331    -0.02900
C941        C  0.93333840  0.27687923  0.31689948    -0.09600
C942        C  0.89580546  0.26012602  0.34071350     0.06600
C943        C  0.87750040  0.28700210  0.34349077    -0.03300
C944        C  0.89685248  0.32931757  0.32281415    -0.07800
C945        C  0.93480061  0.34609749  0.29945307     0.05700
C946        C  0.95352707  0.31989563  0.29682327    -0.02800
Br947      Br  0.00569217  0.34038670  0.26562611    -0.02500
H948        H  0.94773093  0.25692746  0.31414789     0.09700
H949        H  0.88146586  0.34860809  0.32458089     0.07700
Br950      Br  0.82360662  0.26645935  0.37304272    -0.02900
C951        C  0.72307275  0.13405018  0.34389450    -0.09600
C952        C  0.74640832  0.11275673  0.33990244     0.06600
C953        C  0.72935762  0.07737915  0.31714337    -0.03300
C954        C  0.68748074  0.06151675  0.30048600    -0.07800
C955        C  0.66356303  0.08218202  0.30489418     0.05700
C956        C  0.68233310  0.11949799  0.32667289    -0.02800
Br957      Br  0.65279003  0.15040366  0.33559270    -0.02500
H958        H  0.73655534  0.16232218  0.36055804     0.09700
H959        H  0.67401560  0.03341667  0.28370469     0.07700
Br960      Br  0.76107120  0.04915041  0.30753146    -0.02900
C961        C  0.84424257  0.16012918  0.84579722     0.45000
H962        H  0.84766232  0.16380575  0.82009166    -0.04000
C963        C  0.83608154  0.15178510  0.90591817     0.45100
H964        H  0.83223275  0.14711915  0.93157481    -0.04000
C965        C  0.86242605  0.13296438  0.86017457    -0.17700
C966        C  0.87420827  0.21242895  0.86038456    -0.17400
C967        C  0.78882377  0.12896361  0.85944705    -0.17800
C968        C  0.85907459  0.12975364  0.89191782    -0.17800
C969        C  0.87160855  0.20814696  0.89234861    -0.17300
C970        C  0.78446449  0.12501473  0.89123481    -0.17700
C971        C  0.65013532  0.34241079  0.65520409     0.45000
H972        H  0.64854260  0.34042859  0.68088922    -0.04000
C973        C  0.65391065  0.34574581  0.59502120     0.45100
H974        H  0.65612969  0.34708190  0.56934931    -0.04000
C975        C  0.70534498  0.37461580  0.63989204    -0.17700
C976        C  0.61959506  0.28910759  0.64237857    -0.17400
C977        C  0.62729541  0.36490248  0.64077452    -0.17800
C978        C  0.70695440  0.37530067  0.60815076    -0.17800
C979        C  0.62038730  0.29054317  0.61064126    -0.17300
C980        C  0.63257087  0.36988902  0.60880034    -0.17700
O981        O  0.90426201  0.38085922  0.96904399    -0.81300
O982        O  0.50877854  0.08806969  0.53053053    -0.66000
O983        O  0.97513751  0.48842792  0.97403031    -1.12600
C984        C  0.56801469  0.46636328  0.54083665     1.05600
O985        O  0.58875061  0.12032918  0.52605048    -0.79200
O986        O  0.62269151  0.07851796  0.99731853    -0.66800
Ni987      Ni  0.90615982  0.43823426  0.96232957     1.34900
C988        C  0.61081277  0.05227227  0.97409830     0.84300
O989        O  0.96297691  0.06153223  0.97689586    -0.79700
O990        O  0.90103873  0.99029909  0.95354322    -0.90000
C991        C  0.55519042  0.12184184  0.53704413     0.83900
O992        O  0.87118284  0.42127045  0.50186864    -0.68200
O993        O  0.59019786  0.51225236  0.54750506    -0.87500
C994        C  0.88137237  0.44807064  0.52458655     0.84700
C995        C  0.92536215  0.03686899  0.95970993     1.06300
H996        H  0.99636469  0.49525981  0.54407293     0.38100
O997        O  0.51765886  0.01360628  0.52520875    -1.10200
O998        O  0.56642401  0.00907878  0.97190203    -0.66800
Ni999      Ni  0.50320394  0.46439845  0.99756727     1.26300
O1000       O  0.92512984  0.49249957  0.52663645    -0.67000
O1001       O  0.53209643  0.44216598  0.52233603    -0.79300
C1002       C  0.93954854  0.37890859  0.96315900     0.84100
O1003       O  0.98543753  0.41477388  0.96938298    -0.66500
Ni1004     Ni  0.58686878  0.06432504  0.53624906     1.27400
Ni1005     Ni  0.98998275  0.03796509  0.50182092     1.26100
H1006       H  0.99659440  0.00700049  0.95514552     0.38600
O1007       O  0.61432037  0.09644853  0.77792847    -0.81300
O1008       O  0.90637390  0.48447857  0.72080550    -0.66000
O1009       O  0.50809939  0.02132805  0.77657338    -1.12600
C1010       C  0.53435357  0.43334424  0.70828501     1.05600
O1011       O  0.87611372  0.40502820  0.72528358    -0.79200
O1012       O  0.92201336  0.37445631  0.75388654    -0.66800
Ni1013     Ni  0.55576365  0.08998573  0.78915058     1.34900
C1014       C  0.95076933  0.38699619  0.77590377     0.84300
O1015       O  0.93347154  0.03212261  0.77388950    -0.79700
O1016       O  0.00124620  0.08955571  0.80130963    -0.90000
C1017       C  0.87322311  0.43785202  0.71446295     0.83900
O1018       O  0.56815084  0.12665396  0.75103231    -0.68200
O1019       O  0.48735190  0.40877040  0.70308433    -0.87500
C1020       C  0.54356536  0.11460981  0.72697823     0.84700
C1021       C  0.95587062  0.06671069  0.79326358     1.06300
H1022       H  0.50010210  0.99968580  0.70651648     0.38100
O1023       O  0.98294368  0.47860680  0.72567505    -1.10200
O1024       O  0.99349086  0.43209389  0.77779967    -0.66800
Ni1025     Ni  0.53473623  0.49616863  0.75229997     1.26300
O1026       O  0.50174123  0.06934134  0.72360575    -0.67000
O1027       O  0.55882518  0.46996532  0.72638578    -0.79300
C1028       C  0.61931549  0.06443743  0.78689216     0.84100
O1029       O  0.58744153  0.01814137  0.77974861    -0.66500
Ni1030     Ni  0.93361398  0.40928724  0.71491058     1.27400
Ni1031     Ni  0.95753495  0.00513211  0.74914549     1.26100
H1032       H  0.99001603  0.99889032  0.79528468     0.38600
C1033       C  0.62597226  0.22567467  0.59412678    -0.09600
C1034       C  0.60079179  0.24537929  0.59276720     0.06600
C1035       C  0.55869339  0.22221164  0.57414490    -0.03300
C1036       C  0.54419583  0.18188396  0.55639321    -0.07800
C1037       C  0.57090434  0.16375823  0.55669810     0.05700
C1038       C  0.61168571  0.18549433  0.57637597    -0.02800
Br1039     Br  0.64791386  0.16066948  0.58168108    -0.02500
H1040       H  0.65727964  0.24187500  0.60905598     0.09700
H1041       H  0.51200994  0.16482220  0.54208271     0.07700
Br1042     Br  0.51680971  0.24060302  0.57309033    -0.02900
C1043       C  0.75451158  0.35944180  0.57433500    -0.09600
C1044       C  0.75334803  0.39503954  0.58807307     0.06600
C1045       C  0.79541599  0.44788278  0.58177638    -0.03300
C1046       C  0.83798299  0.46407882  0.56264186    -0.07800
C1047       C  0.83903710  0.42842140  0.54848249     0.05700
C1048       C  0.79637700  0.37534861  0.55468994    -0.02800
Br1049     Br  0.79263447  0.32212395  0.03801390    -0.02500
H1050       H  0.72240467  0.31879974  0.57874862     0.09700
H1051       H  0.86918542  0.50497492  0.55744349     0.07700
Br1052     Br  0.79463444  0.49963142  0.59569088    -0.02900
C1053       C  0.61800059  0.46592819  0.58057403    -0.09600
C1054       C  0.58597253  0.44142177  0.55608635     0.06600
C1055       C  0.57550401  0.39664652  0.54632856    -0.03300
C1056       C  0.59407854  0.37607956  0.56252532    -0.07800
C1057       C  0.62160362  0.39799878  0.58893969     0.05700
C1058       C  0.63692162  0.44579169  0.59617969    -0.02800
Br1059     Br  0.68830280  0.48961048  0.62416400    -0.02500
H1060       H  0.62944705  0.50189886  0.58763086     0.09700
H1061       H  0.58617050  0.34229536  0.55461332     0.07700
Br1062     Br  0.53752572  0.36194218  0.01108129    -0.02900
C1063       C  0.63365399  0.23976507  0.67631010    -0.09600
C1064       C  0.59884021  0.24245865  0.66269771     0.06600
C1065       C  0.54573894  0.20137721  0.66907582    -0.03300
C1066       C  0.52844615  0.15864006  0.68862728    -0.07800
C1067       C  0.56337261  0.15640058  0.70274400     0.05700
C1068       C  0.61662623  0.19746612  0.69608432    -0.02800
Br1069     Br  0.66820753  0.19775813  0.71258889    -0.02500
H1070       H  0.67445877  0.27079660  0.67156808     0.09700
H1071       H  0.48748469  0.12823107  0.69407163     0.07700
Br1072     Br  0.49526617  0.20358183  0.65422652    -0.02900
C1073       C  0.81319532  0.44876740  0.69494462    -0.09600
C1074       C  0.83063215  0.42143374  0.69505650     0.06600
C1075       C  0.80861757  0.38062959  0.67541052    -0.03300
C1076       C  0.76878399  0.36697378  0.65732997    -0.07800
C1077       C  0.75002607  0.39312323  0.65815427     0.05700
C1078       C  0.77376214  0.43535405  0.67663799    -0.02800
Br1079     Br  0.75864893  0.47994848  0.67617095    -0.02500
H1080       H  0.83066179  0.48119096  0.70904982     0.09700
H1081       H  0.75240202  0.33570203  0.64240055     0.07700
Br1082     Br  0.83313766  0.34413235  0.67030085    -0.02900
C1083       C  0.62407880  0.40720151  0.68547829    -0.09600
C1084       C  0.60036278  0.37755012  0.66010701     0.06600
C1085       C  0.55269014  0.36275476  0.65304134    -0.03300
C1086       C  0.53334515  0.38239849  0.66864413    -0.07800
C1087       C  0.55956859  0.41630460  0.69215717     0.05700
C1088       C  0.60574891  0.42854853  0.70057177    -0.02800
Br1089     Br  0.64688073  0.47449761  0.73160383    -0.02500
H1090       H  0.65813826  0.41538252  0.69303122     0.09700
H1091       H  0.49685178  0.37037750  0.66219262     0.07700
Br1092     Br  0.50861368  0.31206952  0.62479997    -0.02900
C1093       C  0.94521128  0.10860761  0.92635677    -0.09600
C1094       C  0.90934964  0.06363951  0.94548504     0.06600
C1095       C  0.85836047  0.04398797  0.94972417    -0.03300
C1096       C  0.84309698  0.06722930  0.93295147    -0.07800
C1097       C  0.87796059  0.10956014  0.91164697     0.05700
C1098       C  0.93005630  0.13198499  0.90975309    -0.02800
Br1099     Br  0.98273862  0.19617536  0.88673691    -0.02500
H1100       H  0.98497768  0.12510068  0.92391317     0.09700
H1101       H  0.80349975  0.05117155  0.93574197     0.07700
Br1102     Br  0.80905304  0.98679846  0.47892909    -0.02900
C1103       C  0.86458622  0.24359797  0.93920602    -0.09600
C1104       C  0.89469255  0.25138948  0.91300754     0.06600
C1105       C  0.94481660  0.29981367  0.90761735    -0.03300
C1106       C  0.95980863  0.34072571  0.92505147    -0.07800
C1107       C  0.92644673  0.33378125  0.94868096     0.05700
C1108       C  0.87980185  0.28396844  0.95683521    -0.03600
Br1109     Br  0.83597068  0.26790357  0.99249386    -0.02500
H1110       H  0.82813118  0.20620275  0.94595563     0.09700
H1111       H  0.99728963  0.37832759  0.91971630     0.07700
Br1112     Br  0.99660134  0.31170304  0.87971613    -0.02900
C1113       C  0.65308069  0.03554240  0.93568841    -0.09600
C1114       C  0.65156211  0.07114716  0.94950606     0.06600
C1115       C  0.69177872  0.12408394  0.94162982    -0.03300
C1116       C  0.73390996  0.14034399  0.92225241    -0.07800
C1117       C  0.73706258  0.10507130  0.91007138     0.05700
C1118       C  0.69529311  0.05216301  0.91599781    -0.02800
Br1119     Br  0.69476851  0.00134253  0.89857420    -0.02500
H1120       H  0.62231420  0.99463116  0.94117443     0.09700
H1121       H  0.76409678  0.18091806  0.91634129     0.07700
Br1122     Br  0.69048882  0.17592663  0.95541399    -0.02900
C1123       C  0.88323057  0.04595527  0.82605519    -0.09600
C1124       C  0.92855155  0.08207791  0.80735785     0.06600
C1125       C  0.94949696  0.13362131  0.80429438    -0.03300
C1126       C  0.92585213  0.14853243  0.82064064    -0.07800
C1127       C  0.88242644  0.11334979  0.84102205     0.05700
C1128       C  0.86030499  0.06114622  0.84311085    -0.02800
Br1129     Br  0.79839501  0.00818299  0.86788562    -0.02500
H1130       H  0.86665814  0.00612725  0.82826644     0.09700
H1131       H  0.94308583  0.18842345  0.81858118     0.07700
Br1132     Br  0.01048616  0.18520538  0.77816843    -0.02900
C1133       C  0.93332948  0.27680757  0.81684682    -0.09600
C1134       C  0.89583090  0.26010350  0.84067590     0.06600
C1135       C  0.87755400  0.28700550  0.84344529    -0.03300
C1136       C  0.89690318  0.32930118  0.82275246    -0.07800
C1137       C  0.93479850  0.34601917  0.79936890     0.05700
C1138       C  0.95349194  0.31978630  0.79673873    -0.02800
Br1139     Br  0.00556353  0.34017728  0.76549636    -0.02500
H1140       H  0.94770113  0.25683596  0.81410044     0.09700
H1141       H  0.88154330  0.34861706  0.82451946     0.07700
Br1142     Br  0.82368003  0.26650881  0.87299846    -0.02900
C1143       C  0.72308998  0.13406505  0.84383168    -0.09600
C1144       C  0.74639887  0.11274096  0.83986337     0.06600
C1145       C  0.72931036  0.07731867  0.81712820    -0.03300
C1146       C  0.68743345  0.06145774  0.80046531    -0.07800
C1147       C  0.66353373  0.08214874  0.80485254     0.05700
C1148       C  0.68233647  0.11949752  0.82661571    -0.02800
Br1149     Br  0.65280924  0.15041727  0.83553896    -0.02500
H1150       H  0.73659671  0.16236500  0.86047939     0.09700
H1151       H  0.67394631  0.03332748  0.78370191     0.07700
Br1152     Br  0.76096255  0.04900948  0.80757248    -0.02900
C1153       C  0.84424949  0.66015699  0.34581717     0.45000
H1154       H  0.84766417  0.66384327  0.32011171    -0.04000
C1155       C  0.83610404  0.65179577  0.40593880     0.45100
H1156       H  0.83226578  0.64712630  0.43159524    -0.04000
C1157       C  0.86245593  0.63300747  0.36018187    -0.17700
C1158       C  0.87420298  0.71244679  0.36040880    -0.17400
C1159       C  0.78883436  0.62897823  0.35947764    -0.17800
C1160       C  0.85909360  0.62976994  0.39192559    -0.17800
C1161       C  0.87162309  0.70815620  0.39237007    -0.17300
C1162       C  0.78448297  0.62502743  0.39126558    -0.17700
C1163       C  0.65020451  0.84243950  0.15522449     0.45000
H1164       H  0.64861739  0.84043513  0.18090977    -0.04000
C1165       C  0.65397171  0.84583155  0.09504000     0.45100
H1166       H  0.65618908  0.84719314  0.06936728    -0.04000
C1167       C  0.70541618  0.87469117  0.13990530    -0.17700
C1168       C  0.61969553  0.78915363  0.14237580    -0.17400
C1169       C  0.62732866  0.86491331  0.14082244    -0.17800
C1170       C  0.70702307  0.87540810  0.10816484    -0.17800
C1171       C  0.62048393  0.79061700  0.11063956    -0.17300
C1172       C  0.63258920  0.86992208  0.10884775    -0.17700
O1173       O  0.90431396  0.88088445  0.46899845    -0.81300
O1174       O  0.50888222  0.58817407  0.03049235    -0.66000
O1175       O  0.97514213  0.98842985  0.47401907    -1.12600
C1176       C  0.56800628  0.96636850  0.04085532     1.05600
O1177       O  0.58883850  0.62039391  0.02601834    -0.79200
O1178       O  0.62267665  0.57851856  0.49735134    -0.66800
Ni1179     Ni  0.90619786  0.93824505  0.46227011     1.34900
C1180       C  0.61082277  0.55230078  0.47411980     0.84300
O1181       O  0.96290180  0.56147091  0.47692541    -0.79700
O1182       O  0.90108027  0.49030617  0.45347444    -0.90000
C1183       C  0.55529499  0.62193449  0.03700674     0.83900
O1184       O  0.87123837  0.92130522  0.00195643    -0.68200
O1185       O  0.59023107  0.01228053  0.04749429    -0.87500
C1186       C  0.88145945  0.94817209  0.02464241     0.84700
C1187       C  0.92534630  0.53684253  0.45969427     1.06300
H1188       H  0.99640902  0.99533258  0.04408307     0.38100
O1189       O  0.51770316  0.51365976  0.02520439    -1.10200
O1190       O  0.56643935  0.50911556  0.47190228    -0.66800
Ni1191     Ni  0.50321094  0.96439571  0.49754924     1.26300
O1192       O  0.92520866  0.99262654  0.02664395    -0.67000
O1193       O  0.53207543  0.94216442  0.02236410    -0.79300
C1194       C  0.93961230  0.87894970  0.46311768     0.84100
O1195       O  0.98549585  0.91482084  0.46934348    -0.66500
Ni1196     Ni  0.58692727  0.56437003  0.03622571     1.27400
Ni1197     Ni  0.99004175  0.53802389  0.00180562     1.26100
H1198       H  0.99661584  0.50703508  0.45515252     0.38600
O1199       O  0.61440824  0.59651188  0.27793916    -0.81300
O1200       O  0.90648490  0.98458872  0.22081096    -0.66000
O1201       O  0.50818460  0.52142754  0.27659978    -1.12600
C1202       C  0.53440943  0.93334613  0.20838968     1.05600
O1203       O  0.87619041  0.90512862  0.22529434    -0.79200
O1204       O  0.92200887  0.87455136  0.25398492    -0.66800
Ni1205     Ni  0.55588730  0.59011569  0.28913391     1.34900
C1206       C  0.95077898  0.88708140  0.27599126     0.84300
O1207       O  0.93358511  0.53225216  0.27389180    -0.79700
O1208       O  0.00140362  0.58975624  0.30126158    -0.90000
C1209       C  0.87332766  0.93796694  0.21446254     0.83900
O1210       O  0.56831431  0.62673807  0.25098721    -0.68200
O1211       O  0.48739561  0.90875436  0.20320919    -0.87500
C1212       C  0.54369858  0.61466527  0.22694553     0.84700
C1213       C  0.95601018  0.56688425  0.29323864     1.06300
H1214       H  0.50018507  0.49972796  0.20654980     0.38100
O1215       O  0.98302161  0.97866738  0.22571357    -1.10200
O1216       O  0.99353608  0.93216085  0.27786293    -0.66800
Ni1217     Ni  0.53480044  0.99622636  0.25235093     1.26300
O1218       O  0.50184297  0.56940692  0.22360638    -0.67000
O1219       O  0.55889885  0.97000743  0.22646043    -0.79300
C1220       C  0.61936537  0.56448470  0.28693117     0.84100
O1221       O  0.58747309  0.51818202  0.27981012    -0.66500
Ni1222     Ni  0.93367504  0.90933508  0.21497797     1.27400
Ni1223     Ni  0.95762877  0.50522704  0.24916350     1.26100
H1224       H  0.99010271  0.49901465  0.29532020     0.38600
C1225       C  0.62614003  0.72582035  0.09406122    -0.09600
C1226       C  0.60090369  0.74546868  0.09274960     0.06600
C1227       C  0.55873868  0.72223483  0.07417841    -0.03300
C1228       C  0.54424539  0.68191602  0.05641635    -0.07800
C1229       C  0.57102360  0.66386201  0.05666087     0.05700
C1230       C  0.61186717  0.68565787  0.07629659    -0.02800
Br1231     Br  0.64820401  0.66093899  0.08153506    -0.02500
H1232       H  0.65746627  0.74203385  0.10897523     0.09700
H1233       H  0.51200329  0.66480139  0.04214820     0.07700
Br1234     Br  0.51675778  0.74051722  0.07322088    -0.02900
C1235       C  0.75472970  0.85957101  0.07449147    -0.09600
C1236       C  0.75342549  0.89516419  0.08809281     0.06600
C1237       C  0.79538850  0.94801403  0.08169622    -0.03300
C1238       C  0.83798011  0.96422659  0.06258067    -0.07800
C1239       C  0.83915922  0.92856608  0.04854954     0.05700
C1240       C  0.79662563  0.87548824  0.05487663    -0.02800
Br1241     Br  0.79212625  0.82196241  0.53760232    -0.02500
H1242       H  0.72272067  0.81892514  0.07899707     0.09700
H1243       H  0.86909567  0.00511858  0.05729378     0.07700
Br1244     Br  0.79442930  0.99971666  0.09546471    -0.02900
C1245       C  0.61794472  0.96591808  0.08062096    -0.09600
C1246       C  0.58592591  0.94140621  0.05613129     0.06600
C1247       C  0.57541774  0.89659784  0.04640359    -0.03300
C1248       C  0.59399959  0.87604312  0.06260702    -0.07800
C1249       C  0.62156017  0.89799678  0.08900631     0.05700
C1250       C  0.63685728  0.94578508  0.09624247    -0.02800
Br1251     Br  0.68819132  0.98961535  0.12424580    -0.02500
H1252       H  0.62939029  0.00189315  0.08766781     0.09700
H1253       H  0.58606478  0.84223564  0.05471424     0.07700
Br1254     Br  0.53769743  0.86206997  0.51096630    -0.02900
C1255       C  0.63376434  0.73971029  0.17619442    -0.09600
C1256       C  0.59895049  0.74248588  0.16266907     0.06600
C1257       C  0.54585127  0.70146012  0.16910571    -0.03300
C1258       C  0.52856007  0.65871622  0.18864502    -0.07800
C1259       C  0.56348878  0.65641474  0.20269094     0.05700
C1260       C  0.61673739  0.69740006  0.19595634    -0.02800
Br1261     Br  0.66829456  0.69755423  0.21234607    -0.02500
H1262       H  0.67456422  0.77068608  0.17139959     0.09700
H1263       H  0.48760453  0.62835903  0.19414347     0.07700
Br1264     Br  0.49538494  0.70374602  0.15435809    -0.02900
C1265       C  0.81340431  0.94898472  0.19485976    -0.09600
C1266       C  0.83074788  0.92156241  0.19504451     0.06600
C1267       C  0.80863297  0.88065835  0.17546627    -0.03300
C1268       C  0.76880950  0.86700849  0.15737875    -0.07800
C1269       C  0.75011745  0.89321986  0.15815252     0.05700
C1270       C  0.77394592  0.93554198  0.17656460    -0.02800
Br1271     Br  0.75886802  0.98016650  0.17602973    -0.02500
H1272       H  0.83094194  0.98148012  0.20891022     0.09700
H1273       H  0.75238444  0.83569091  0.14248281     0.07700
Br1274     Br  0.83296255  0.84396705  0.17047202    -0.02900
C1275       C  0.62417844  0.90725755  0.18552526    -0.09600
C1276       C  0.60040423  0.87754710  0.16018069     0.06600
C1277       C  0.55270292  0.86271713  0.15315111    -0.03300
C1278       C  0.53335489  0.88233894  0.16877786    -0.07800
C1279       C  0.55961661  0.91628930  0.19226496     0.05700
C1280       C  0.60585131  0.92860323  0.20063039    -0.02800
Br1281     Br  0.64709805  0.97470287  0.23157581    -0.02500
H1282       H  0.65830892  0.91552800  0.19302462     0.09700
H1283       H  0.49683847  0.87028673  0.16235194     0.07700
Br1284     Br  0.50861547  0.81206944  0.12489517    -0.02900
C1285       C  0.94520658  0.60859656  0.42636195    -0.09600
C1286       C  0.90933798  0.56361803  0.44547789     0.06600
C1287       C  0.85834770  0.54396220  0.44971379    -0.03300
C1288       C  0.84308408  0.56719937  0.43293579    -0.07800
C1289       C  0.87796132  0.60955071  0.41164571     0.05700
C1290       C  0.93005952  0.63198666  0.40976752    -0.02800
Br1291     Br  0.98275962  0.69621854  0.38679935    -0.02500
H1292       H  0.98497541  0.62509547  0.42392691     0.09700
H1293       H  0.80348508  0.55113785  0.43572013     0.07700
Br1294     Br  0.80905061  0.48680293  0.97892277    -0.02900
C1295       C  0.86466297  0.74362410  0.43923438    -0.09600
C1296       C  0.89473582  0.75139882  0.41302357     0.06600
C1297       C  0.94486016  0.79981324  0.40761202    -0.03300
C1298       C  0.95986682  0.84074902  0.42502392    -0.07800
C1299       C  0.92652253  0.83382120  0.44865912     0.05700
C1300       C  0.87990082  0.78401230  0.45684868    -0.03600
Br1301     Br  0.83614900  0.76798252  0.49254383    -0.02500
H1302       H  0.82822340  0.70622973  0.44600856     0.09700
H1303       H  0.99734235  0.87834899  0.41967111     0.07700
Br1304     Br  0.99662551  0.81164154  0.37972387    -0.02900
C1305       C  0.65307502  0.53557999  0.43569184    -0.09600
C1306       C  0.65159044  0.57118872  0.44953899     0.06600
C1307       C  0.69184666  0.62412804  0.44169857    -0.03300
C1308       C  0.73397513  0.64037927  0.42232167    -0.07800
C1309       C  0.73709067  0.60509755  0.41010994     0.05700
C1310       C  0.69528764  0.55219310  0.41600515    -0.02800
Br1311     Br  0.69472006  0.50136646  0.39854511    -0.02500
H1312       H  0.62227927  0.49466705  0.44115115     0.09700
H1313       H  0.76418513  0.68095418  0.41643121     0.07700
Br1314     Br  0.69061835  0.67598933  0.45553155    -0.02900
C1315       C  0.88332136  0.54608349  0.32600113    -0.09600
C1316       C  0.92868432  0.58224249  0.30734261     0.06600
C1317       C  0.94964578  0.63379474  0.30432598    -0.03300
C1318       C  0.92597305  0.64867246  0.32067924    -0.07800
C1319       C  0.88249956  0.61344434  0.34101974     0.05700
C1320       C  0.86036814  0.56123998  0.34306380    -0.02800
Br1321     Br  0.79841190  0.50824067  0.36779358    -0.02500
H1322       H  0.86673523  0.50624989  0.32817798     0.09700
H1323       H  0.94321526  0.68856758  0.31865610     0.07700
Br1324     Br  0.01067555  0.68542930  0.27824305    -0.02900
C1325       C  0.93333844  0.77687931  0.31689947    -0.09600
C1326       C  0.89580536  0.76012600  0.34071342     0.06600
C1327       C  0.87750022  0.78700200  0.34349063    -0.03300
C1328       C  0.89685232  0.82931748  0.32281402    -0.07800
C1329       C  0.93480060  0.84609752  0.29945302     0.05700
C1330       C  0.95352715  0.81989574  0.29682327    -0.02800
Br1331     Br  0.00569240  0.84038692  0.26562619    -0.02500
H1332       H  0.94773105  0.75692761  0.31414793     0.09700
H1333       H  0.88146561  0.84860792  0.32458071     0.07700
Br1334     Br  0.82360637  0.76645921  0.37304253    -0.02900
C1335       C  0.72307282  0.63405022  0.34389443    -0.09600
C1336       C  0.74640828  0.61275666  0.33990242     0.06600
C1337       C  0.72935750  0.57737896  0.31714342    -0.03300
C1338       C  0.68748061  0.56151654  0.30048607    -0.07800
C1339       C  0.66356300  0.58218194  0.30489418     0.05700
C1340       C  0.68233319  0.61949805  0.32667281    -0.02800
Br1341     Br  0.65279035  0.65040398  0.33559249    -0.02500
H1342       H  0.73655547  0.66232228  0.36055792     0.09700
H1343       H  0.67401538  0.53341636  0.28370482     0.07700
Br1344     Br  0.76107103  0.54915016  0.30753160    -0.02900
C1345       C  0.84424260  0.66012921  0.84579723     0.45000
H1346       H  0.84766234  0.66380575  0.82009167    -0.04000
C1347       C  0.83608156  0.65178517  0.90591818     0.45100
H1348       H  0.83223276  0.64711922  0.93157481    -0.04000
C1349       C  0.86242598  0.63296432  0.86017459    -0.17700
C1350       C  0.87420836  0.71242900  0.86038456    -0.17400
C1351       C  0.78882381  0.62896372  0.85944706    -0.17800
C1352       C  0.85907453  0.62975362  0.89191784    -0.17800
C1353       C  0.87160864  0.70814704  0.89234861    -0.17300
C1354       C  0.78446453  0.62501487  0.89123482    -0.17700
C1355       C  0.65013507  0.84241081  0.65520413     0.45000
H1356       H  0.64854234  0.84042870  0.68088926    -0.04000
C1357       C  0.65391042  0.84574558  0.59502124     0.45100
H1358       H  0.65612946  0.84708157  0.56934936    -0.04000
C1359       C  0.70534474  0.87461572  0.63989210    -0.17700
C1360       C  0.61959473  0.78910753  0.64237870    -0.17400
C1361       C  0.62729526  0.86490252  0.64077445    -0.17800
C1362       C  0.70695415  0.87530043  0.60815082    -0.17800
C1363       C  0.62038698  0.79054299  0.61064138    -0.17300
C1364       C  0.63257076  0.86988896  0.60880027    -0.17700
O1365       O  0.90426211  0.88085929  0.96904396    -0.81300
O1366       O  0.50877860  0.58806965  0.53053061    -0.66000
O1367       O  0.97513761  0.98842801  0.97403034    -1.12600
C1368       C  0.56801477  0.96636341  0.54083662     1.05600
O1369       O  0.58875072  0.62032921  0.52605065    -0.79200
O1370       O  0.62269142  0.57851794  0.99731842    -0.66800
Ni1371     Ni  0.90615987  0.93823432  0.96232967     1.34900
C1372       C  0.61081268  0.55227225  0.97409819     0.84300
O1373       O  0.96297661  0.56153200  0.97689595    -0.79700
O1374       O  0.90103877  0.49029906  0.95354303    -0.90000
C1375       C  0.55519045  0.62184178  0.53704428     0.83900
O1376       O  0.87118247  0.92127041  0.50186838    -0.68200
O1377       O  0.59019769  0.01225237  0.54750519    -0.87500
C1378       C  0.88137199  0.94807030  0.52458646     0.84700
C1379       C  0.92536203  0.53686887  0.95970988     1.06300
H1380       H  0.99636465  0.99525963  0.54407288     0.38100
O1381       O  0.51765893  0.51360627  0.52520880    -1.10200
O1382       O  0.56642392  0.50907876  0.97190193    -0.66800
Ni1383     Ni  0.50320402  0.96439845  0.99756736     1.26300
O1384       O  0.92512955  0.99249906  0.52663657    -0.67000
O1385       O  0.53209665  0.94216619  0.52233590    -0.79300
C1386       C  0.93954867  0.87890867  0.96315904     0.84100
O1387       O  0.98543763  0.91477396  0.96938308    -0.66500
Ni1388     Ni  0.58686890  0.56432503  0.53624905     1.27400
Ni1389     Ni  0.98998308  0.53796535  0.50182080     1.26100
H1390       H  0.99659439  0.50700052  0.95514544     0.38600
O1391       O  0.61432026  0.59644858  0.77792851    -0.81300
O1392       O  0.90637381  0.98447856  0.72080549    -0.66000
O1393       O  0.50809930  0.52132785  0.77657339    -1.12600
C1394       C  0.53435353  0.93334445  0.70828482     1.05600
O1395       O  0.87611359  0.90502817  0.72528355    -0.79200
O1396       O  0.92201325  0.87445631  0.75388655    -0.66800
Ni1397     Ni  0.55576337  0.58998544  0.78915074     1.34900
C1398       C  0.95076929  0.88699619  0.77590374     0.84300
O1399       O  0.93347162  0.53212267  0.77388951    -0.79700
O1400       O  0.00124619  0.58955560  0.80130976    -0.90000
C1401       C  0.87322300  0.93785201  0.71446294     0.83900
O1402       O  0.56815038  0.62665386  0.75103259    -0.68200
O1403       O  0.48735202  0.90877094  0.70308388    -0.87500
C1404       C  0.54356512  0.61460974  0.72697841     0.84700
C1405       C  0.95587065  0.56671064  0.79326367     1.06300
H1406       H  0.50010191  0.49968548  0.70651646     0.38100
O1407       O  0.98294358  0.97860677  0.72567501    -1.10200
O1408       O  0.99349083  0.93209388  0.77779962    -0.66800
Ni1409     Ni  0.53473616  0.99616863  0.75230000     1.26300
O1410       O  0.50174122  0.56934119  0.72360577    -0.67000
O1411       O  0.55882496  0.96996512  0.72638586    -0.79300
C1412       C  0.61931557  0.56443759  0.78689210     0.84100
O1413       O  0.58744172  0.51814155  0.77974851    -0.66500
Ni1414     Ni  0.93361385  0.90928719  0.71491057     1.27400
Ni1415     Ni  0.95753503  0.50513213  0.74914551     1.26100
H1416       H  0.99001610  0.49889038  0.79528466     0.38600
C1417       C  0.62597186  0.72567435  0.59412711    -0.09600
C1418       C  0.60079147  0.74537905  0.59276740     0.06600
C1419       C  0.55869326  0.72221153  0.57414495    -0.03300
C1420       C  0.54419581  0.68188389  0.55639325    -0.07800
C1421       C  0.57090424  0.66375809  0.55669828     0.05700
C1422       C  0.61168542  0.68549406  0.57637629    -0.02800
Br1423     Br  0.64791350  0.66066915  0.58168152    -0.02500
H1424       H  0.65727920  0.74187470  0.60905636     0.09700
H1425       H  0.51201007  0.66482225  0.54208263     0.07700
Br1426     Br  0.51680974  0.74060308  0.57309014    -0.02900
C1427       C  0.75451070  0.85944143  0.57433449    -0.09600
C1428       C  0.75334775  0.89503920  0.58807312     0.06600
C1429       C  0.79541617  0.94788241  0.58177686    -0.03300
C1430       C  0.83798309  0.96407836  0.56264229    -0.07800
C1431       C  0.83903664  0.92842092  0.54848238     0.05700
C1432       C  0.79637598  0.87534817  0.55468932    -0.02800
Br1433     Br  0.79263517  0.82212420  0.03801439    -0.02500
H1434       H  0.72240336  0.81879940  0.57874771     0.09700
H1435       H  0.86918590  0.00497446  0.55744429     0.07700
Br1436     Br  0.79463529  0.99963125  0.59569184    -0.02900
C1437       C  0.61800093  0.96592841  0.58057385    -0.09600
C1438       C  0.58597275  0.94142196  0.55608622     0.06600
C1439       C  0.57550422  0.89664672  0.54632840    -0.03300
C1440       C  0.59407869  0.87607969  0.56252515    -0.07800
C1441       C  0.62160374  0.89799885  0.58893954     0.05700
C1442       C  0.63692190  0.94579184  0.59617950    -0.02800
Br1443     Br  0.68830312  0.98961054  0.62416382    -0.02500
H1444       H  0.62944749  0.00189912  0.58763067     0.09700
H1445       H  0.58617058  0.84229545  0.55461315     0.07700
Br1446     Br  0.53752538  0.86194189  0.01108145    -0.02900
C1447       C  0.63365370  0.73976541  0.67631059    -0.09600
C1448       C  0.59883989  0.74245866  0.66269792     0.06600
C1449       C  0.54573862  0.70137699  0.66907584    -0.03300
C1450       C  0.52844589  0.65863985  0.68862731    -0.07800
C1451       C  0.56337238  0.65640064  0.70274425     0.05700
C1452       C  0.61662601  0.69746652  0.69608484    -0.02800
Br1453     Br  0.66820747  0.69775919  0.71258985    -0.02500
H1454       H  0.67445849  0.77079717  0.67156876     0.09700
H1455       H  0.48748442  0.62823064  0.69407147     0.07700
Br1456     Br  0.49526576  0.70358131  0.65422629    -0.02900
C1457       C  0.81319506  0.94876728  0.69494476    -0.09600
C1458       C  0.83063201  0.92143375  0.69505651     0.06600
C1459       C  0.80861749  0.88062969  0.67541047    -0.03300
C1460       C  0.76878385  0.86697384  0.65732997    -0.07800
C1461       C  0.75002581  0.89312317  0.65815437     0.05700
C1462       C  0.77376180  0.93535389  0.67663819    -0.02800
Br1463     Br  0.75864843  0.97994819  0.67617139    -0.02500
H1464       H  0.83066147  0.98119077  0.70905002     0.09700
H1465       H  0.75240189  0.83570211  0.64240053     0.07700
Br1466     Br  0.83313776  0.84413264  0.67030064    -0.02900
C1467       C  0.62407859  0.90720152  0.68547819    -0.09600
C1468       C  0.60036267  0.87755027  0.66010685     0.06600
C1469       C  0.55269013  0.86275504  0.65304109    -0.03300
C1470       C  0.53334518  0.88239884  0.66864385    -0.07800
C1471       C  0.55956855  0.91630484  0.69215696     0.05700
C1472       C  0.60574875  0.92854859  0.70057164    -0.02800
Br1473     Br  0.64688049  0.97449746  0.73160380    -0.02500
H1474       H  0.65813787  0.91538228  0.69303124     0.09700
H1475       H  0.49685186  0.87037792  0.66219229     0.07700
Br1476     Br  0.50861368  0.81206975  0.62479974    -0.02900
C1477       C  0.94521120  0.60860761  0.92635683    -0.09600
C1478       C  0.90934953  0.56363942  0.94548503     0.06600
C1479       C  0.85836033  0.54398781  0.94972410    -0.03300
C1480       C  0.84309686  0.56722919  0.93295144    -0.07800
C1481       C  0.87796050  0.60956011  0.91164700     0.05700
C1482       C  0.93005623  0.63198501  0.90975316    -0.02800
Br1483     Br  0.98273852  0.69617538  0.88673696    -0.02500
H1484       H  0.98497762  0.62510073  0.92391327     0.09700
H1485       H  0.80349961  0.55117139  0.93574190     0.07700
Br1486     Br  0.80905342  0.48679911  0.47892937    -0.02900
C1487       C  0.86458640  0.74359805  0.93920608    -0.09600
C1488       C  0.89469266  0.75138958  0.91300755     0.06600
C1489       C  0.94481669  0.79981378  0.90761734    -0.03300
C1490       C  0.95980875  0.84072582  0.92505148    -0.07800
C1491       C  0.92644690  0.83378134  0.94868101     0.05700
C1492       C  0.87980206  0.78396851  0.95683528    -0.03600
Br1493     Br  0.83597096  0.76790365  0.99249398    -0.02500
H1494       H  0.82813135  0.70620284  0.94595569     0.09700
H1495       H  0.99728973  0.87832772  0.91971628     0.07700
Br1496     Br  0.99660136  0.81170318  0.87971602    -0.02900
C1497       C  0.65308068  0.53554247  0.93568832    -0.09600
C1498       C  0.65156204  0.57114719  0.94950597     0.06600
C1499       C  0.69177869  0.62408399  0.94162980    -0.03300
C1500       C  0.73390999  0.64034409  0.92225243    -0.07800
C1501       C  0.73706262  0.60507143  0.91007137     0.05700
C1502       C  0.69529316  0.55216313  0.91599776    -0.02800
Br1503     Br  0.69476872  0.50134273  0.89857419    -0.02500
H1504       H  0.62231419  0.49463122  0.94117430     0.09700
H1505       H  0.76409685  0.68091817  0.91634137     0.07700
Br1506     Br  0.69048881  0.67592666  0.95541403    -0.02900
C1507       C  0.88323060  0.54595520  0.82605530    -0.09600
C1508       C  0.92855157  0.58207784  0.80735795     0.06600
C1509       C  0.94949696  0.63362123  0.80429447    -0.03300
C1510       C  0.92585208  0.64853234  0.82064070    -0.07800
C1511       C  0.88242637  0.61334970  0.84102209     0.05700
C1512       C  0.86030498  0.56114614  0.84311092    -0.02800
Br1513     Br  0.79839500  0.50818287  0.86788568    -0.02500
H1514       H  0.86665820  0.50612719  0.82826656     0.09700
H1515       H  0.94308576  0.68842336  0.81858122     0.07700
Br1516     Br  0.01048622  0.68520534  0.77816859    -0.02900
C1517       C  0.93332948  0.77680757  0.81684677    -0.09600
C1518       C  0.89583096  0.76010352  0.84067587     0.06600
C1519       C  0.87755406  0.78700552  0.84344528    -0.03300
C1520       C  0.89690321  0.82930120  0.82275245    -0.07800
C1521       C  0.93479850  0.84601918  0.79936888     0.05700
C1522       C  0.95349194  0.81978630  0.79673869    -0.02800
Br1523     Br  0.00556353  0.84017729  0.76549632    -0.02500
H1524       H  0.94770112  0.75683594  0.81410037     0.09700
H1525       H  0.88154333  0.84861707  0.82451947     0.07700
Br1526     Br  0.82368009  0.76650880  0.87299846    -0.02900
C1527       C  0.72309002  0.63406519  0.84383166    -0.09600
C1528       C  0.74639892  0.61274109  0.83986336     0.06600
C1529       C  0.72931039  0.57731878  0.81712821    -0.03300
C1530       C  0.68743355  0.56145792  0.80046527    -0.07800
C1531       C  0.66353385  0.58214895  0.80485247     0.05700
C1532       C  0.68233653  0.61949767  0.82661567    -0.02800
Br1533     Br  0.65280916  0.65041726  0.83553900    -0.02500
H1534       H  0.73659671  0.66236510  0.86047939     0.09700
H1535       H  0.67394640  0.53332764  0.78370188     0.07700
Br1536     Br  0.76096241  0.54900936  0.80757264    -0.02900
loop_ 
_geom_bond_atom_site_label_1 
_geom_bond_atom_site_label_2 
_geom_bond_distance 
_geom_bond_site_symmetry_2 
_ccdc_geom_bond_type 
C1            H2   1.111       .  S
C1            C7   1.533       .  S
C1            C6   1.548       .  S
C1            C5   1.542       .  S
C3            H4   1.110       .  S
C3            C9   1.542       .  S
C3            C8   1.528       .  S
C3           C10   1.543       .  S
C5            C8   1.372       .  D
C5          C167   1.488       .  S
C6            C9   1.382       .  D
C6          C174   1.495       .  S
C7           C10   1.374       .  D
C7          C184   1.485       .  S
C8          C137   1.484       .  S
C9          C144   1.497       .  S
C10         C157   1.486       .  S
C11          H12   1.111       .  S
C11          C17   1.541       .  S
C11          C16   1.538       .  S
C11          C15   1.548       .  S
C13          H14   1.111       .  S
C13          C19   1.547       .  S
C13          C18   1.539       .  S
C13          C20   1.540       .  S
C15          C18   1.375       .  D
C15         C117   1.491       .  S
C16          C19   1.374       .  D
C16         C104   1.490       .  S
C17          C20   1.383       .  D
C17         C124   1.497       .  S
C18          C84   1.490       .  S
C19          C74   1.488       .  S
C20          C97   1.497       .  S
O21         Ni27   1.935       .  S
O21          C42   1.272       .  A
O22        Ni813   1.918   1_455  S
O22          C31   1.269       .  A
O23         Ni27   1.913       .  S
O23        Ni621   1.912       .  S
O23        Ni807   1.916       .  S
O23         H430   0.966       .  S
C24          O41   1.277       .  A
C24          O33   1.276       .  A
C24          C94   1.488       .  S
O25         Ni44   1.912       .  S
O25          C31   1.264       .  A
O26        Ni236   1.904       .  S
O26          C28   1.266       .  A
Ni27        O414   1.928       .  S
Ni27        O224   1.903       .  S
C28          O38   1.268       .  A
C28         C154   1.480       .  S
O29        Ni237   1.909       .  S
O29          C35   1.273       .  A
O30        Ni411   1.928       .  S
O30          C35   1.276   1_565  A
C31          C77   1.480       .  S
O32        Ni219   1.903   1_554  S
O32          C34   1.267       .  A
O33        Ni428   1.907       .  S
C34          O40   1.276       .  A
C34          C87   1.490       .  S
C35         C134   1.468       .  S
H36        O1189   0.963       .  S
O37         Ni44   1.911       .  S
O37        Ni813   1.910   1_455  S
O37        Ni615   1.904   1_544  S
O37        H1188   0.963   1_445  S
O38        Ni423   1.923   1_545  S
Ni39        O422   1.923       .  S
Ni39        O811   1.899   1_455  S
Ni39        O233   1.924       .  S
Ni39        O791   1.916   1_455  S
Ni39        O613   1.904       .  S
O40        Ni429   1.939       .  S
O41        Ni231   1.923   1_554  S
C42          O43   1.263       .  A
C42         C147   1.473       .  S
O43        Ni807   1.899       .  S
Ni44        O218   1.904   1_554  S
Ni44        O417   1.907       .  S
Ni45        O790   1.918       .  S
Ni45        O221   1.909   1_554  S
Ni45        O424   1.939   1_545  S
Ni45        O599   1.912   1_544  S
Ni45        O805   1.910       .  S
H46         O407   0.966   1_545  S
O47         Ni53   1.915       .  S
O47          C68   1.265       .  A
O48        Ni455   1.916       .  S
O48          C57   1.270       .  A
O49         Ni53   1.912       .  S
O49        Ni839   1.911   1_455  S
O49        Ni449   1.927   1_545  S
O49         H840   0.969   1_445  S
C50          O67   1.280       .  A
C50          O59   1.276   1_455  A
C50         C127   1.491       .  S
O51         Ni70   1.917       .  S
O51          C57   1.266       .  A
O52         Ni70   1.907       .  S
O52          C54   1.267       .  A
Ni53         O58   1.899       .  S
Ni53        O824   1.916       .  S
C54          O64   1.271       .  A
C54         C177   1.473       .  S
O55         Ni71   1.922       .  S
O55          C61   1.277       .  A
O56        Ni821   1.916       .  S
O56          C61   1.275       .  A
C57         C114   1.483       .  S
O58          C60   1.266       .  A
O59        Ni838   1.908       .  S
C60          O66   1.274       .  A
C60         C107   1.483       .  S
C61         C164   1.468       .  S
H62        O1215   0.966   1_455  S
O63         Ni70   1.905       .  S
O63        Ni455   1.913       .  S
O63        Ni833   1.906       .  S
O63        H1214   0.966       .  S
O64        Ni833   1.934       .  S
Ni65         O67   1.931       .  S
Ni65        O832   1.934   1_455  S
Ni65        O453   1.917       .  S
Ni65        O433   1.927       .  S
Ni65        O831   1.906   1_455  S
O66        Ni839   1.937   1_455  S
C68          O69   1.269       .  A
C68         C187   1.477       .  S
O69        Ni449   1.917   1_545  S
Ni70        O827   1.908       .  S
Ni71        O432   1.916   1_545  S
Ni71        O834   1.937       .  S
Ni71        O817   1.911       .  S
Ni71        O447   1.913   1_545  S
H72         O817   0.969   1_565  S
C73          C74   1.400       .  A
C73          C78   1.397       .  A
C73          H80   1.083       .  S
C74          C75   1.412       .  A
C75          C76   1.399       .  A
C75         Br82   1.907       .  S
C76          C77   1.401       .  A
C76          H81   1.084       .  S
C77          C78   1.415       .  A
C78         Br79   1.921       .  S
C83          C84   1.399       .  A
C83          C88   1.399       .  A
C83          H90   1.079       .  S
C84          C85   1.407       .  A
C85          C86   1.402       .  A
C85         Br92   1.909       .  S
C86          C87   1.407       .  A
C86          H91   1.083       .  S
C87          C88   1.416       .  A
C88        Br281   1.917       .  S
Br89        C280   1.917       .  S
C93          C94   1.406       .  A
C93          C98   1.389       .  A
C93         H100   1.083       .  S
C94          C95   1.415       .  A
C95          C96   1.403       .  A
C95        Br294   1.922       .  S
C96          C97   1.405       .  A
C96         H101   1.076       .  S
C97          C98   1.409       .  A
C98         Br99   1.912       .  S
Br102       C287   1.922       .  S
C103        C104   1.401       .  A
C103        C108   1.399       .  A
C103        H110   1.079       .  S
C104        C105   1.408       .  A
C105        C106   1.402       .  A
C105       Br112   1.909   1_455  S
C106        C107   1.405       .  A
C106        H111   1.084   1_455  S
C107        C108   1.413       .  A
C108       Br109   1.921       .  S
C113        C114   1.400       .  A
C113        C118   1.398       .  A
C113        H120   1.084       .  S
C114        C115   1.416       .  A
C115        C116   1.400       .  A
C115       Br122   1.921       .  S
C116        C117   1.402       .  A
C116        H121   1.083       .  S
C117        C118   1.412       .  A
C118       Br119   1.905       .  S
C123        C124   1.402       .  A
C123        C128   1.401       .  A
C123        H130   1.074       .  S
C124        C125   1.409       .  A
C125        C126   1.391       .  A
C125       Br132   1.913       .  S
C126        C127   1.408       .  A
C126        H131   1.083   1_455  S
C127        C128   1.414       .  A
C128       Br129   1.914       .  S
C133        C134   1.399       .  A
C133        C138   1.397       .  A
C133        H140   1.084       .  S
C134        C135   1.408       .  A
C135        C136   1.400       .  A
C135       Br334   1.920   1_545  S
C136        C137   1.403       .  A
C136        H141   1.084       .  S
C137        C138   1.410       .  A
C138       Br139   1.915       .  S
Br142       C327   1.920   1_565  S
C143        C144   1.405       .  A
C143        C148   1.390       .  A
C143        H150   1.077       .  S
C144        C145   1.416       .  A
C145        C146   1.402       .  A
C145       Br152   1.916       .  S
C146        C147   1.404       .  A
C146        H151   1.084       .  S
C147        C148   1.404       .  A
C148       Br149   1.916       .  S
C153        C154   1.408       .  A
C153        C158   1.402       .  A
C153        H160   1.084   1_545  S
C154        C155   1.409       .  A
C155        C156   1.396       .  A
C155       Br162   1.921       .  S
C156        C157   1.401       .  A
C156        H161   1.076       .  S
C157        C158   1.405       .  A
C158       Br159   1.912       .  S
C163        C164   1.398       .  A
C163        C168   1.399       .  A
C163        H170   1.084       .  S
C164        C165   1.408       .  A
C165        C166   1.396       .  A
C165       Br172   1.920       .  S
C166        C167   1.400       .  A
C166        H171   1.079       .  S
C167        C168   1.416       .  A
C168       Br169   1.915       .  S
C173        C174   1.402       .  A
C173        C178   1.398       .  A
C173        H180   1.079       .  S
C174        C175   1.417       .  A
C175        C176   1.402       .  A
C175       Br182   1.910       .  S
C176        C177   1.398       .  A
C176        H181   1.084       .  S
C177        C178   1.408       .  A
C178       Br179   1.916       .  S
C183        C184   1.400       .  A
C183        C188   1.394       .  A
C183        H190   1.079       .  S
C184        C185   1.409       .  A
C185        C186   1.398       .  A
C185       Br192   1.912       .  S
C186        C187   1.401       .  A
C186        H191   1.079       .  S
C187        C188   1.413       .  A
C188       Br189   1.922       .  S
C193        H194   1.111       .  S
C193        C199   1.533       .  S
C193        C198   1.548       .  S
C193        C197   1.542       .  S
C195        H196   1.110       .  S
C195        C201   1.542       .  S
C195        C200   1.528       .  S
C195        C202   1.543       .  S
C197        C200   1.372       .  D
C197        C359   1.488       .  S
C198        C201   1.383       .  D
C198        C366   1.495       .  S
C199        C202   1.374       .  D
C199        C376   1.485       .  S
C200        C329   1.484       .  S
C201        C336   1.497       .  S
C202        C349   1.486       .  S
C203        H204   1.111       .  S
C203        C209   1.541       .  S
C203        C208   1.538       .  S
C203        C207   1.548       .  S
C205        H206   1.111       .  S
C205        C211   1.547       .  S
C205        C210   1.539       .  S
C205        C212   1.539       .  S
C207        C210   1.375       .  D
C207        C309   1.491       .  S
C208        C211   1.374       .  D
C208        C296   1.490       .  S
C209        C212   1.383       .  D
C209        C316   1.497       .  S
C210        C276   1.490       .  S
C211        C266   1.488       .  S
C212        C289   1.497       .  S
O213       Ni219   1.935       .  S
O213        C234   1.272       .  A
O214      Ni1005   1.918   1_455  S
O214        C223   1.269       .  A
O215       Ni219   1.913       .  S
O215       Ni429   1.912   1_556  S
O215       Ni999   1.916       .  S
O215        H622   0.966       .  S
C216        O233   1.277       .  A
C216        O225   1.276       .  A
C216        C286   1.488       .  S
O217       Ni236   1.912       .  S
O217        C223   1.264       .  A
O218        C220   1.266       .  A
Ni219       O606   1.928       .  S
C220        O230   1.268       .  A
C220        C346   1.480       .  S
O221        C227   1.273       .  A
O222       Ni603   1.928       .  S
O222        C227   1.276   1_565  A
C223        C269   1.480       .  S
O224        C226   1.267       .  A
O225       Ni620   1.907       .  S
C226        O232   1.276       .  A
C226        C279   1.490       .  S
C227        C326   1.468       .  S
H228       O1381   0.963       .  S
O229      Ni1005   1.910   1_455  S
O229       Ni423   1.904   1_545  S
O229       Ni236   1.911       .  S
O229       H1380   0.963   1_445  S
O230       Ni615   1.923   1_545  S
Ni231       O614   1.923       .  S
Ni231      O1003   1.899   1_455  S
Ni231       O983   1.916   1_455  S
Ni231       O421   1.904   1_556  S
O232       Ni621   1.939       .  S
C234        O235   1.263       .  A
C234        C339   1.474       .  S
O235       Ni999   1.899       .  S
Ni236       O609   1.907       .  S
Ni237       O982   1.918       .  S
Ni237       O616   1.939   1_545  S
Ni237       O407   1.912   1_545  S
Ni237       O997   1.910       .  S
H238        O599   0.966   1_545  S
O239       Ni245   1.915       .  S
O239        C260   1.265       .  A
O240       Ni647   1.915       .  S
O240        C249   1.270       .  A
O241       Ni245   1.912       .  S
O241      Ni1031   1.911   1_455  S
O241       Ni641   1.927   1_545  S
O241       H1032   0.969   1_445  S
C242        O259   1.280       .  A
C242        O251   1.276   1_455  A
C242        C319   1.491       .  S
O243       Ni262   1.917       .  S
O243        C249   1.266       .  A
O244       Ni262   1.907       .  S
O244        C246   1.267       .  A
Ni245      O1016   1.916       .  S
Ni245       O250   1.899       .  S
C246        O256   1.271       .  A
C246        C369   1.473       .  S
O247       Ni263   1.922       .  S
O247        C253   1.277       .  A
O248      Ni1013   1.916       .  S
O248        C253   1.275       .  A
C249        C306   1.483       .  S
O250        C252   1.266       .  A
O251      Ni1030   1.908       .  S
C252        O258   1.274       .  A
C252        C299   1.483       .  S
C253        C356   1.468       .  S
H254       O1407   0.966   1_455  S
O255       Ni647   1.913       .  S
O255      Ni1025   1.906       .  S
O255       Ni262   1.905       .  S
O255       H1406   0.966       .  S
O256      Ni1025   1.933       .  S
Ni257      O1024   1.933   1_455  S
Ni257       O645   1.918       .  S
Ni257       O259   1.931       .  S
Ni257       O625   1.927       .  S
Ni257      O1023   1.906   1_455  S
O258      Ni1031   1.937   1_455  S
C260        O261   1.269       .  A
C260        C379   1.478       .  S
O261       Ni641   1.918   1_545  S
Ni262      O1019   1.908       .  S
Ni263       O624   1.915   1_545  S
Ni263      O1026   1.937       .  S
Ni263      O1009   1.911       .  S
Ni263       O639   1.913   1_545  S
H264       O1009   0.969   1_565  S
C265        C266   1.400       .  A
C265        C270   1.397       .  A
C265        H272   1.083       .  S
C266        C267   1.412       .  A
C267        C268   1.399       .  A
C267       Br274   1.907       .  S
C268        C269   1.400       .  A
C268        H273   1.084       .  S
C269        C270   1.415       .  A
C270       Br271   1.921       .  S
C275        C276   1.399       .  A
C275        C280   1.399       .  A
C275        H282   1.079       .  S
C276        C277   1.407       .  A
C277        C278   1.402       .  A
C277       Br284   1.909       .  S
C278        C279   1.407       .  A
C278        H283   1.083       .  S
C279        C280   1.416       .  A
C285        C286   1.406       .  A
C285        C290   1.389       .  A
C285        H292   1.083       .  S
C286        C287   1.415       .  A
C287        C288   1.403       .  A
C288        C289   1.405       .  A
C288        H293   1.076       .  S
C289        C290   1.409       .  A
C290       Br291   1.912       .  S
C295        C296   1.401       .  A
C295        C300   1.399       .  A
C295        H302   1.079       .  S
C296        C297   1.408       .  A
C297        C298   1.402       .  A
C297       Br304   1.909   1_455  S
C298        C299   1.405       .  A
C298        H303   1.084   1_455  S
C299        C300   1.413       .  A
C300       Br301   1.921       .  S
C305        C306   1.400       .  A
C305        C310   1.398       .  A
C305        H312   1.084       .  S
C306        C307   1.416       .  A
C307        C308   1.400       .  A
C307       Br314   1.921       .  S
C308        C309   1.402       .  A
C308        H313   1.083       .  S
C309        C310   1.412       .  A
C310       Br311   1.905       .  S
C315        C316   1.402       .  A
C315        C320   1.401       .  A
C315        H322   1.074       .  S
C316        C317   1.409       .  A
C317        C318   1.391       .  A
C317       Br324   1.913       .  S
C318        C319   1.408       .  A
C318        H323   1.083   1_455  S
C319        C320   1.413       .  A
C320       Br321   1.914       .  S
C325        C326   1.399       .  A
C325        C330   1.397       .  A
C325        H332   1.084       .  S
C326        C327   1.408       .  A
C327        C328   1.400       .  A
C328        C329   1.403       .  A
C328        H333   1.084       .  S
C329        C330   1.410       .  A
C330       Br331   1.915       .  S
C335        C336   1.405       .  A
C335        C340   1.390       .  A
C335        H342   1.077       .  S
C336        C337   1.416       .  A
C337        C338   1.402       .  A
C337       Br344   1.916       .  S
C338        C339   1.404       .  A
C338        H343   1.084       .  S
C339        C340   1.404       .  A
C340       Br341   1.916       .  S
C345        C346   1.408       .  A
C345        C350   1.402       .  A
C345        H352   1.084   1_545  S
C346        C347   1.409       .  A
C347        C348   1.396       .  A
C347       Br354   1.921       .  S
C348        C349   1.401       .  A
C348        H353   1.076       .  S
C349        C350   1.405       .  A
C350       Br351   1.912       .  S
C355        C356   1.398       .  A
C355        C360   1.399       .  A
C355        H362   1.084       .  S
C356        C357   1.408       .  A
C357        C358   1.396       .  A
C357       Br364   1.920       .  S
C358        C359   1.400       .  A
C358        H363   1.079       .  S
C359        C360   1.416       .  A
C360       Br361   1.915       .  S
C365        C366   1.403       .  A
C365        C370   1.398       .  A
C365        H372   1.079       .  S
C366        C367   1.417       .  A
C367        C368   1.402       .  A
C367       Br374   1.910       .  S
C368        C369   1.398       .  A
C368        H373   1.084       .  S
C369        C370   1.408       .  A
C370       Br371   1.916       .  S
C375        C376   1.400       .  A
C375        C380   1.394       .  A
C375        H382   1.079       .  S
C376        C377   1.409       .  A
C377        C378   1.399       .  A
C377       Br384   1.912       .  S
C378        C379   1.401       .  A
C378        H383   1.079       .  S
C379        C380   1.413       .  A
C380       Br381   1.922       .  S
C385        H386   1.111       .  S
C385        C391   1.533       .  S
C385        C390   1.548       .  S
C385        C389   1.542       .  S
C387        H388   1.110       .  S
C387        C393   1.542       .  S
C387        C392   1.528       .  S
C387        C394   1.543       .  S
C389        C392   1.372       .  D
C389        C551   1.488       .  S
C390        C393   1.382       .  D
C390        C558   1.495       .  S
C391        C394   1.374       .  D
C391        C568   1.485       .  S
C392        C521   1.484       .  S
C393        C528   1.497       .  S
C394        C541   1.486       .  S
C395        H396   1.111       .  S
C395        C401   1.541       .  S
C395        C400   1.538       .  S
C395        C399   1.548       .  S
C397        H398   1.111       .  S
C397        C403   1.547       .  S
C397        C402   1.539       .  S
C397        C404   1.540       .  S
C399        C402   1.375       .  D
C399        C501   1.491       .  S
C400        C403   1.374       .  D
C400        C488   1.490       .  S
C401        C404   1.383       .  D
C401        C508   1.497       .  S
C402        C468   1.490       .  S
C403        C458   1.488       .  S
C404        C481   1.497       .  S
O405       Ni411   1.935       .  S
O405        C426   1.272       .  A
O406      Ni1197   1.918   1_455  S
O406        C415   1.269       .  A
O407       Ni411   1.913       .  S
O407      Ni1191   1.916       .  S
C408        O425   1.277       .  A
C408        O417   1.276   1_565  A
C408        C478   1.488       .  S
O409       Ni428   1.912       .  S
O409        C415   1.264       .  A
O410       Ni620   1.904       .  S
O410        C412   1.266       .  A
Ni411       O608   1.903       .  S
C412        O422   1.268       .  A
C412        C538   1.480       .  S
O413       Ni621   1.909       .  S
O413        C419   1.273       .  A
O414        C419   1.276       .  A
C415        C461   1.480       .  S
O416       Ni603   1.903   1_554  S
O416        C418   1.267       .  A
C418        O424   1.276       .  A
C418        C471   1.490       .  S
C419        C518   1.468       .  S
H420        O805   0.963   1_565  S
O421      Ni1197   1.910   1_455  S
O421       Ni428   1.911       .  S
O421        H804   0.963   1_455  S
Ni423      O1195   1.899   1_455  S
Ni423       O617   1.924       .  S
Ni423      O1175   1.916   1_455  S
O425       Ni615   1.923   1_554  S
C426        O427   1.263       .  A
C426        C531   1.473       .  S
O427      Ni1191   1.899       .  S
Ni428       O602   1.904   1_554  S
Ni429      O1174   1.918       .  S
Ni429       O605   1.909   1_554  S
Ni429      O1189   1.910       .  S
O431       Ni437   1.915       .  S
O431        C452   1.265       .  A
O432        C441   1.270       .  A
O433       Ni437   1.912       .  S
O433      Ni1223   1.911   1_455  S
O433       H1224   0.969   1_455  S
C434        O451   1.280       .  A
C434        O443   1.276   1_455  A
C434        C511   1.491       .  S
O435       Ni454   1.917       .  S
O435        C441   1.266       .  A
O436       Ni454   1.907       .  S
O436        C438   1.267       .  A
Ni437      O1208   1.916       .  S
Ni437       O442   1.899       .  S
C438        O448   1.271       .  A
C438        C561   1.473       .  S
O439       Ni455   1.922       .  S
O439        C445   1.277       .  A
O440      Ni1205   1.916       .  S
O440        C445   1.275       .  A
C441        C498   1.483       .  S
O442        C444   1.266       .  A
O443      Ni1222   1.908       .  S
C444        O450   1.274       .  A
C444        C491   1.483       .  S
C445        C548   1.468       .  S
H446        O831   0.966   1_455  S
O447      Ni1217   1.906       .  S
O447       Ni454   1.905       .  S
O447        H830   0.966       .  S
O448      Ni1217   1.934       .  S
Ni449      O1216   1.934   1_455  S
Ni449       O451   1.931       .  S
Ni449      O1215   1.906   1_455  S
O450      Ni1223   1.937   1_455  S
C452        O453   1.269       .  A
C452        C571   1.477       .  S
Ni454      O1211   1.908       .  S
Ni455      O1218   1.937       .  S
Ni455      O1201   1.911       .  S
H456       O1201   0.969       .  S
C457        C458   1.400       .  A
C457        C462   1.397       .  A
C457        H464   1.083       .  S
C458        C459   1.412       .  A
C459        C460   1.399       .  A
C459       Br466   1.907       .  S
C460        C461   1.401       .  A
C460        H465   1.084       .  S
C461        C462   1.415       .  A
C462       Br463   1.921       .  S
C467        C468   1.399       .  A
C467        C472   1.399       .  A
C467        H474   1.079       .  S
C468        C469   1.407       .  A
C469        C470   1.402       .  A
C469       Br476   1.909       .  S
C470        C471   1.407       .  A
C470        H475   1.083   1_565  S
C471        C472   1.416       .  A
C472       Br665   1.917       .  S
Br473       C664   1.917       .  S
C477        C478   1.406       .  A
C477        C482   1.389       .  A
C477        H484   1.083   1_565  S
C478        C479   1.415       .  A
C479        C480   1.403       .  A
C479       Br678   1.922       .  S
C480        C481   1.405       .  A
C480        H485   1.076       .  S
C481        C482   1.409       .  A
C482       Br483   1.912       .  S
Br486       C671   1.922       .  S
C487        C488   1.401       .  A
C487        C492   1.399       .  A
C487        H494   1.079       .  S
C488        C489   1.408       .  A
C489        C490   1.402       .  A
C489       Br496   1.909   1_455  S
C490        C491   1.405       .  A
C490        H495   1.084   1_455  S
C491        C492   1.413       .  A
C492       Br493   1.921       .  S
C497        C498   1.400       .  A
C497        C502   1.398       .  A
C497        H504   1.084       .  S
C498        C499   1.416       .  A
C499        C500   1.400       .  A
C499       Br506   1.921       .  S
C500        C501   1.402       .  A
C500        H505   1.083       .  S
C501        C502   1.412       .  A
C502       Br503   1.905       .  S
C507        C508   1.402       .  A
C507        C512   1.401       .  A
C507        H514   1.074       .  S
C508        C509   1.409       .  A
C509        C510   1.391       .  A
C509       Br516   1.913       .  S
C510        C511   1.408       .  A
C510        H515   1.083   1_455  S
C511        C512   1.414       .  A
C512       Br513   1.914       .  S
C517        C518   1.399       .  A
C517        C522   1.397       .  A
C517        H524   1.084       .  S
C518        C519   1.408       .  A
C519        C520   1.400       .  A
C519       Br718   1.920       .  S
C520        C521   1.403       .  A
C520        H525   1.084       .  S
C521        C522   1.410       .  A
C522       Br523   1.915       .  S
Br526       C711   1.920       .  S
C527        C528   1.405       .  A
C527        C532   1.390       .  A
C527        H534   1.077       .  S
C528        C529   1.416       .  A
C529        C530   1.402       .  A
C529       Br536   1.916       .  S
C530        C531   1.404       .  A
C530        H535   1.084       .  S
C531        C532   1.404       .  A
C532       Br533   1.916       .  S
C537        C538   1.408       .  A
C537        C542   1.402       .  A
C537        H544   1.084       .  S
C538        C539   1.409       .  A
C539        C540   1.396       .  A
C539       Br546   1.921       .  S
C540        C541   1.401       .  A
C540        H545   1.076       .  S
C541        C542   1.405       .  A
C542       Br543   1.912       .  S
C547        C548   1.398       .  A
C547        C552   1.399       .  A
C547        H554   1.084       .  S
C548        C549   1.408       .  A
C549        C550   1.396       .  A
C549       Br556   1.920       .  S
C550        C551   1.400       .  A
C550        H555   1.079       .  S
C551        C552   1.416       .  A
C552       Br553   1.915       .  S
C557        C558   1.402       .  A
C557        C562   1.398       .  A
C557        H564   1.079       .  S
C558        C559   1.417       .  A
C559        C560   1.402       .  A
C559       Br566   1.910       .  S
C560        C561   1.398       .  A
C560        H565   1.084       .  S
C561        C562   1.408       .  A
C562       Br563   1.916       .  S
C567        C568   1.400       .  A
C567        C572   1.394       .  A
C567        H574   1.079       .  S
C568        C569   1.409       .  A
C569        C570   1.398       .  A
C569       Br576   1.912       .  S
C570        C571   1.401       .  A
C570        H575   1.079       .  S
C571        C572   1.413       .  A
C572       Br573   1.922       .  S
C577        H578   1.111       .  S
C577        C583   1.533       .  S
C577        C582   1.548       .  S
C577        C581   1.542       .  S
C579        H580   1.110       .  S
C579        C585   1.542       .  S
C579        C584   1.528       .  S
C579        C586   1.543       .  S
C581        C584   1.372       .  D
C581        C743   1.488       .  S
C582        C585   1.383       .  D
C582        C750   1.495       .  S
C583        C586   1.374       .  D
C583        C760   1.485       .  S
C584        C713   1.484       .  S
C585        C720   1.497       .  S
C586        C733   1.486       .  S
C587        H588   1.111       .  S
C587        C593   1.541       .  S
C587        C592   1.538       .  S
C587        C591   1.548       .  S
C589        H590   1.111       .  S
C589        C595   1.547       .  S
C589        C594   1.539       .  S
C589        C596   1.539       .  S
C591        C594   1.375       .  D
C591        C693   1.491       .  S
C592        C595   1.374       .  D
C592        C680   1.490       .  S
C593        C596   1.383       .  D
C593        C700   1.497       .  S
C594        C660   1.490       .  S
C595        C650   1.488       .  S
C596        C673   1.497       .  S
O597       Ni603   1.935       .  S
O597        C618   1.272       .  A
O598      Ni1389   1.918   1_455  S
O598        C607   1.269       .  A
O599       Ni603   1.913       .  S
O599      Ni1383   1.916       .  S
C600        O617   1.277       .  A
C600        O609   1.276   1_565  A
C600        C670   1.488       .  S
O601       Ni620   1.912       .  S
O601        C607   1.264       .  A
O602        C604   1.266       .  A
C604        O614   1.268       .  A
C604        C730   1.480       .  S
O605        C611   1.273       .  A
O606        C611   1.276       .  A
C607        C653   1.480       .  S
O608        C610   1.267       .  A
C610        O616   1.276       .  A
C610        C663   1.490       .  S
C611        C710   1.468       .  S
H612        O997   0.963   1_565  S
O613      Ni1389   1.910   1_455  S
O613       Ni620   1.911       .  S
O613        H996   0.963   1_455  S
Ni615      O1387   1.899   1_455  S
Ni615      O1367   1.916   1_455  S
C618        O619   1.263       .  A
C618        C723   1.474       .  S
O619      Ni1383   1.899       .  S
Ni621      O1366   1.918       .  S
Ni621      O1381   1.910       .  S
O623       Ni629   1.915       .  S
O623        C644   1.265       .  A
O624        C633   1.270       .  A
O625       Ni629   1.912       .  S
O625      Ni1415   1.911   1_455  S
O625       H1416   0.969   1_455  S
C626        O643   1.280       .  A
C626        O635   1.276   1_455  A
C626        C703   1.491       .  S
O627       Ni646   1.917       .  S
O627        C633   1.266       .  A
O628       Ni646   1.907       .  S
O628        C630   1.267       .  A
Ni629      O1400   1.916       .  S
Ni629       O634   1.899       .  S
C630        O640   1.271       .  A
C630        C753   1.473       .  S
O631       Ni647   1.922       .  S
O631        C637   1.277       .  A
O632      Ni1397   1.916       .  S
O632        C637   1.275       .  A
C633        C690   1.483       .  S
O634        C636   1.266       .  A
O635      Ni1414   1.908       .  S
C636        O642   1.274       .  A
C636        C683   1.483       .  S
C637        C740   1.468       .  S
H638       O1023   0.966   1_455  S
O639      Ni1409   1.906       .  S
O639       Ni646   1.905       .  S
O639       H1022   0.966       .  S
O640      Ni1409   1.933       .  S
Ni641      O1408   1.933   1_455  S
Ni641       O643   1.931       .  S
Ni641      O1407   1.906   1_455  S
O642      Ni1415   1.937   1_455  S
C644        O645   1.269       .  A
C644        C763   1.478       .  S
Ni646      O1403   1.908       .  S
Ni647      O1410   1.937       .  S
Ni647      O1393   1.911       .  S
H648       O1393   0.969       .  S
C649        C650   1.400       .  A
C649        C654   1.397       .  A
C649        H656   1.083       .  S
C650        C651   1.412       .  A
C651        C652   1.399       .  A
C651       Br658   1.907       .  S
C652        C653   1.400       .  A
C652        H657   1.084       .  S
C653        C654   1.415       .  A
C654       Br655   1.921       .  S
C659        C660   1.399       .  A
C659        C664   1.399       .  A
C659        H666   1.079       .  S
C660        C661   1.407       .  A
C661        C662   1.402       .  A
C661       Br668   1.909       .  S
C662        C663   1.407       .  A
C662        H667   1.083   1_565  S
C663        C664   1.416       .  A
C669        C670   1.406       .  A
C669        C674   1.389       .  A
C669        H676   1.083   1_565  S
C670        C671   1.415       .  A
C671        C672   1.403       .  A
C672        C673   1.405       .  A
C672        H677   1.076       .  S
C673        C674   1.409       .  A
C674       Br675   1.912       .  S
C679        C680   1.401       .  A
C679        C684   1.399       .  A
C679        H686   1.079       .  S
C680        C681   1.408       .  A
C681        C682   1.402       .  A
C681       Br688   1.909   1_455  S
C682        C683   1.405       .  A
C682        H687   1.084   1_455  S
C683        C684   1.413       .  A
C684       Br685   1.921       .  S
C689        C690   1.400       .  A
C689        C694   1.398       .  A
C689        H696   1.084       .  S
C690        C691   1.416       .  A
C691        C692   1.400       .  A
C691       Br698   1.921       .  S
C692        C693   1.402       .  A
C692        H697   1.083       .  S
C693        C694   1.412       .  A
C694       Br695   1.905       .  S
C699        C700   1.402       .  A
C699        C704   1.401       .  A
C699        H706   1.074       .  S
C700        C701   1.409       .  A
C701        C702   1.391       .  A
C701       Br708   1.913       .  S
C702        C703   1.408       .  A
C702        H707   1.083   1_455  S
C703        C704   1.413       .  A
C704       Br705   1.914       .  S
C709        C710   1.399       .  A
C709        C714   1.397       .  A
C709        H716   1.084       .  S
C710        C711   1.408       .  A
C711        C712   1.400       .  A
C712        C713   1.403       .  A
C712        H717   1.084       .  S
C713        C714   1.410       .  A
C714       Br715   1.915       .  S
C719        C720   1.405       .  A
C719        C724   1.390       .  A
C719        H726   1.077       .  S
C720        C721   1.416       .  A
C721        C722   1.402       .  A
C721       Br728   1.916       .  S
C722        C723   1.404       .  A
C722        H727   1.084       .  S
C723        C724   1.404       .  A
C724       Br725   1.916       .  S
C729        C730   1.408       .  A
C729        C734   1.402       .  A
C729        H736   1.084       .  S
C730        C731   1.409       .  A
C731        C732   1.396       .  A
C731       Br738   1.921       .  S
C732        C733   1.401       .  A
C732        H737   1.076       .  S
C733        C734   1.405       .  A
C734       Br735   1.912       .  S
C739        C740   1.398       .  A
C739        C744   1.399       .  A
C739        H746   1.084       .  S
C740        C741   1.408       .  A
C741        C742   1.396       .  A
C741       Br748   1.920       .  S
C742        C743   1.400       .  A
C742        H747   1.079       .  S
C743        C744   1.416       .  A
C744       Br745   1.915       .  S
C749        C750   1.403       .  A
C749        C754   1.398       .  A
C749        H756   1.079       .  S
C750        C751   1.417       .  A
C751        C752   1.402       .  A
C751       Br758   1.910       .  S
C752        C753   1.398       .  A
C752        H757   1.084       .  S
C753        C754   1.408       .  A
C754       Br755   1.916       .  S
C759        C760   1.400       .  A
C759        C764   1.394       .  A
C759        H766   1.079       .  S
C760        C761   1.409       .  A
C761        C762   1.399       .  A
C761       Br768   1.912       .  S
C762        C763   1.401       .  A
C762        H767   1.079       .  S
C763        C764   1.413       .  A
C764       Br765   1.922       .  S
C769        H770   1.111       .  S
C769        C775   1.533       .  S
C769        C774   1.548       .  S
C769        C773   1.542       .  S
C771        H772   1.110       .  S
C771        C777   1.542       .  S
C771        C776   1.528       .  S
C771        C778   1.543       .  S
C773        C776   1.372       .  D
C773        C935   1.488       .  S
C774        C777   1.382       .  D
C774        C942   1.495       .  S
C775        C778   1.374       .  D
C775        C952   1.485       .  S
C776        C905   1.484       .  S
C777        C912   1.497       .  S
C778        C925   1.486       .  S
C779        H780   1.111       .  S
C779        C785   1.541       .  S
C779        C784   1.538       .  S
C779        C783   1.548       .  S
C781        H782   1.111       .  S
C781        C787   1.547       .  S
C781        C786   1.539       .  S
C781        C788   1.540       .  S
C783        C786   1.375       .  D
C783        C885   1.491       .  S
C784        C787   1.374       .  D
C784        C872   1.490       .  S
C785        C788   1.383       .  D
C785        C892   1.497       .  S
C786        C852   1.490       .  S
C787        C842   1.488       .  S
C788        C865   1.497       .  S
O789       Ni795   1.935       .  S
O789        C810   1.272       .  A
O790        C799   1.269       .  A
O791       Ni795   1.913       .  S
O791      Ni1389   1.912       .  S
O791       H1198   0.966       .  S
C792        O809   1.277       .  A
C792        O801   1.276       .  A
C792        C862   1.488       .  S
O793       Ni812   1.912       .  S
O793        C799   1.264       .  A
O794      Ni1004   1.904       .  S
O794        C796   1.266       .  A
Ni795      O1182   1.928       .  S
Ni795       O992   1.903       .  S
C796        O806   1.268       .  A
C796        C922   1.480       .  S
O797      Ni1005   1.909       .  S
O797        C803   1.273       .  A
O798      Ni1179   1.928       .  S
O798        C803   1.276   1_565  A
C799        C845   1.480       .  S
O800       Ni987   1.903   1_554  S
O800        C802   1.267       .  A
O801      Ni1196   1.907       .  S
C802        O808   1.276       .  A
C802        C855   1.490       .  S
C803        C902   1.468       .  S
O805      Ni1383   1.904   1_544  S
O805       Ni812   1.911       .  S
O806      Ni1191   1.923   1_545  S
Ni807      O1190   1.923       .  S
Ni807      O1001   1.924       .  S
Ni807      O1381   1.904       .  S
O808      Ni1197   1.939       .  S
O809       Ni999   1.923   1_554  S
C810        O811   1.263       .  A
C810        C915   1.473       .  S
Ni812       O986   1.904   1_554  S
Ni812      O1185   1.907       .  S
Ni813       O989   1.909   1_554  S
Ni813      O1192   1.939   1_545  S
Ni813      O1367   1.912   1_544  S
H814       O1175   0.966   1_545  S
O815       Ni821   1.915       .  S
O815        C836   1.265       .  A
O816      Ni1223   1.916       .  S
O816        C825   1.270       .  A
O817       Ni821   1.912       .  S
O817      Ni1217   1.927   1_545  S
C818        O835   1.280       .  A
C818        O827   1.276       .  A
C818        C895   1.491       .  S
O819       Ni838   1.917       .  S
O819        C825   1.266       .  A
O820       Ni838   1.907       .  S
O820        C822   1.267       .  A
Ni821       O826   1.899       .  S
C822        O832   1.271       .  A
C822        C945   1.473       .  S
O823       Ni839   1.922       .  S
O823        C829   1.277       .  A
O824        C829   1.275   1_455  A
C825        C882   1.483       .  S
O826        C828   1.266       .  A
C828        O834   1.274       .  A
C828        C875   1.483       .  S
C829        C932   1.468       .  S
O831      Ni1223   1.913       .  S
O831       Ni838   1.905       .  S
Ni833      O1221   1.917       .  S
Ni833       O835   1.931       .  S
Ni833      O1201   1.927       .  S
C836        O837   1.269       .  A
C836        C955   1.477       .  S
O837      Ni1217   1.917   1_545  S
Ni839      O1200   1.916   1_545  S
Ni839      O1215   1.913   1_545  S
C841        C842   1.400       .  A
C841        C846   1.397       .  A
C841        H848   1.083       .  S
C842        C843   1.412       .  A
C843        C844   1.399       .  A
C843       Br850   1.907       .  S
C844        C845   1.401       .  A
C844        H849   1.084       .  S
C845        C846   1.415       .  A
C846       Br847   1.921       .  S
C851        C852   1.399       .  A
C851        C856   1.399       .  A
C851        H858   1.079       .  S
C852        C853   1.407       .  A
C853        C854   1.402       .  A
C853       Br860   1.909       .  S
C854        C855   1.407       .  A
C854        H859   1.083       .  S
C855        C856   1.416       .  A
C856      Br1049   1.917       .  S
Br857      C1048   1.917       .  S
C861        C862   1.406       .  A
C861        C866   1.389       .  A
C861        H868   1.083       .  S
C862        C863   1.415       .  A
C863        C864   1.403       .  A
C863      Br1062   1.922       .  S
C864        C865   1.405       .  A
C864        H869   1.076       .  S
C865        C866   1.409       .  A
C866       Br867   1.912       .  S
Br870      C1055   1.922       .  S
C871        C872   1.401       .  A
C871        C876   1.399       .  A
C871        H878   1.079       .  S
C872        C873   1.408       .  A
C873        C874   1.402       .  A
C873       Br880   1.909       .  S
C874        C875   1.405       .  A
C874        H879   1.084       .  S
C875        C876   1.413       .  A
C876       Br877   1.921       .  S
C881        C882   1.400       .  A
C881        C886   1.398       .  A
C881        H888   1.084       .  S
C882        C883   1.416       .  A
C883        C884   1.400       .  A
C883       Br890   1.921       .  S
C884        C885   1.402       .  A
C884        H889   1.083       .  S
C885        C886   1.412       .  A
C886       Br887   1.905       .  S
C891        C892   1.402       .  A
C891        C896   1.401       .  A
C891        H898   1.074       .  S
C892        C893   1.409       .  A
C893        C894   1.391       .  A
C893       Br900   1.913       .  S
C894        C895   1.408       .  A
C894        H899   1.083       .  S
C895        C896   1.414       .  A
C896       Br897   1.914       .  S
C901        C902   1.399       .  A
C901        C906   1.397       .  A
C901        H908   1.084       .  S
C902        C903   1.408       .  A
C903        C904   1.400       .  A
C903      Br1102   1.920   1_545  S
C904        C905   1.403       .  A
C904        H909   1.084       .  S
C905        C906   1.410       .  A
C906       Br907   1.915       .  S
Br910      C1095   1.920   1_565  S
C911        C912   1.405       .  A
C911        C916   1.390       .  A
C911        H918   1.077       .  S
C912        C913   1.416       .  A
C913        C914   1.402       .  A
C913       Br920   1.916       .  S
C914        C915   1.404       .  A
C914        H919   1.084       .  S
C915        C916   1.404       .  A
C916       Br917   1.916       .  S
C921        C922   1.408       .  A
C921        C926   1.402       .  A
C921        H928   1.084   1_545  S
C922        C923   1.409       .  A
C923        C924   1.396       .  A
C923       Br930   1.921       .  S
C924        C925   1.401       .  A
C924        H929   1.076       .  S
C925        C926   1.405       .  A
C926       Br927   1.912       .  S
C931        C932   1.398       .  A
C931        C936   1.399       .  A
C931        H938   1.084       .  S
C932        C933   1.408       .  A
C933        C934   1.396       .  A
C933       Br940   1.920   1_655  S
C934        C935   1.400       .  A
C934        H939   1.079       .  S
C935        C936   1.416       .  A
C936       Br937   1.915       .  S
C941        C942   1.402       .  A
C941        C946   1.398       .  A
C941        H948   1.079       .  S
C942        C943   1.417       .  A
C943        C944   1.402       .  A
C943       Br950   1.910       .  S
C944        C945   1.398       .  A
C944        H949   1.084       .  S
C945        C946   1.408       .  A
C946       Br947   1.916   1_655  S
C951        C952   1.400       .  A
C951        C956   1.394       .  A
C951        H958   1.079       .  S
C952        C953   1.409       .  A
C953        C954   1.398       .  A
C953       Br960   1.912       .  S
C954        C955   1.401       .  A
C954        H959   1.079       .  S
C955        C956   1.413       .  A
C956       Br957   1.922       .  S
C961        H962   1.111       .  S
C961        C967   1.533       .  S
C961        C966   1.548       .  S
C961        C965   1.542       .  S
C963        H964   1.110       .  S
C963        C969   1.542       .  S
C963        C968   1.528       .  S
C963        C970   1.543       .  S
C965        C968   1.372       .  D
C965       C1127   1.488       .  S
C966        C969   1.383       .  D
C966       C1134   1.495       .  S
C967        C970   1.374       .  D
C967       C1144   1.485       .  S
C968       C1097   1.484       .  S
C969       C1104   1.497       .  S
C970       C1117   1.486       .  S
C971        H972   1.111       .  S
C971        C977   1.541       .  S
C971        C976   1.538       .  S
C971        C975   1.548       .  S
C973        H974   1.111       .  S
C973        C979   1.547       .  S
C973        C978   1.539       .  S
C973        C980   1.539       .  S
C975        C978   1.375       .  D
C975       C1077   1.491       .  S
C976        C979   1.374       .  D
C976       C1064   1.490       .  S
C977        C980   1.383       .  D
C977       C1084   1.497       .  S
C978       C1044   1.490       .  S
C979       C1034   1.488       .  S
C980       C1057   1.497       .  S
O981       Ni987   1.935       .  S
O981       C1002   1.272       .  A
O982        C991   1.269       .  A
O983       Ni987   1.913       .  S
O983      Ni1197   1.912   1_556  S
O983       H1390   0.966       .  S
C984       O1001   1.277       .  A
C984        O993   1.276       .  A
C984       C1054   1.488       .  S
O985      Ni1004   1.912       .  S
O985        C991   1.264       .  A
O986        C988   1.266       .  A
Ni987      O1374   1.928       .  S
C988        O998   1.268       .  A
C988       C1114   1.480       .  S
O989        C995   1.273       .  A
O990      Ni1371   1.928       .  S
O990        C995   1.276   1_565  A
C991       C1037   1.480       .  S
O992        C994   1.267       .  A
O993      Ni1388   1.907       .  S
C994       O1000   1.276       .  A
C994       C1047   1.490       .  S
C995       C1094   1.468       .  S
O997      Ni1191   1.904   1_545  S
O997      Ni1004   1.911       .  S
O998      Ni1383   1.923   1_545  S
Ni999      O1382   1.923       .  S
Ni999      O1189   1.904   1_556  S
O1000     Ni1389   1.939       .  S
C1002      O1003   1.263       .  A
C1002      C1107   1.474       .  S
Ni1004     O1377   1.907       .  S
Ni1005     O1384   1.939   1_545  S
Ni1005     O1175   1.912   1_545  S
H1006      O1367   0.966   1_545  S
O1007     Ni1013   1.915       .  S
O1007      C1028   1.265       .  A
O1008     Ni1415   1.915       .  S
O1008      C1017   1.270       .  A
O1009     Ni1013   1.912       .  S
O1009     Ni1409   1.927   1_545  S
C1010      O1027   1.280       .  A
C1010      O1019   1.276       .  A
C1010      C1087   1.491       .  S
O1011     Ni1030   1.917       .  S
O1011      C1017   1.266       .  A
O1012     Ni1030   1.907       .  S
O1012      C1014   1.267       .  A
Ni1013     O1018   1.899       .  S
C1014      O1024   1.271       .  A
C1014      C1137   1.473       .  S
O1015     Ni1031   1.922       .  S
O1015      C1021   1.277       .  A
O1016      C1021   1.275   1_455  A
C1017      C1074   1.483       .  S
O1018      C1020   1.266       .  A
C1020      O1026   1.274       .  A
C1020      C1067   1.483       .  S
C1021      C1124   1.468       .  S
O1023     Ni1415   1.913       .  S
O1023     Ni1030   1.905       .  S
Ni1025     O1413   1.918       .  S
Ni1025     O1027   1.931       .  S
Ni1025     O1393   1.927       .  S
C1028      O1029   1.269       .  A
C1028      C1147   1.478       .  S
O1029     Ni1409   1.918   1_545  S
Ni1031     O1392   1.915   1_545  S
Ni1031     O1407   1.913   1_545  S
C1033      C1034   1.400       .  A
C1033      C1038   1.397       .  A
C1033      H1040   1.083       .  S
C1034      C1035   1.412       .  A
C1035      C1036   1.399       .  A
C1035     Br1042   1.907       .  S
C1036      C1037   1.400       .  A
C1036      H1041   1.084       .  S
C1037      C1038   1.415       .  A
C1038     Br1039   1.921       .  S
C1043      C1044   1.399       .  A
C1043      C1048   1.399       .  A
C1043      H1050   1.079       .  S
C1044      C1045   1.407       .  A
C1045      C1046   1.402       .  A
C1045     Br1052   1.909       .  S
C1046      C1047   1.407       .  A
C1046      H1051   1.083       .  S
C1047      C1048   1.416       .  A
C1053      C1054   1.406       .  A
C1053      C1058   1.389       .  A
C1053      H1060   1.083       .  S
C1054      C1055   1.415       .  A
C1055      C1056   1.403       .  A
C1056      C1057   1.405       .  A
C1056      H1061   1.076       .  S
C1057      C1058   1.409       .  A
C1058     Br1059   1.912       .  S
C1063      C1064   1.401       .  A
C1063      C1068   1.399       .  A
C1063      H1070   1.079       .  S
C1064      C1065   1.408       .  A
C1065      C1066   1.402       .  A
C1065     Br1072   1.909       .  S
C1066      C1067   1.405       .  A
C1066      H1071   1.084       .  S
C1067      C1068   1.413       .  A
C1068     Br1069   1.921       .  S
C1073      C1074   1.400       .  A
C1073      C1078   1.398       .  A
C1073      H1080   1.084       .  S
C1074      C1075   1.416       .  A
C1075      C1076   1.400       .  A
C1075     Br1082   1.921       .  S
C1076      C1077   1.402       .  A
C1076      H1081   1.083       .  S
C1077      C1078   1.412       .  A
C1078     Br1079   1.905       .  S
C1083      C1084   1.402       .  A
C1083      C1088   1.401       .  A
C1083      H1090   1.074       .  S
C1084      C1085   1.409       .  A
C1085      C1086   1.391       .  A
C1085     Br1092   1.913       .  S
C1086      C1087   1.408       .  A
C1086      H1091   1.083       .  S
C1087      C1088   1.413       .  A
C1088     Br1089   1.914       .  S
C1093      C1094   1.399       .  A
C1093      C1098   1.397       .  A
C1093      H1100   1.084       .  S
C1094      C1095   1.408       .  A
C1095      C1096   1.400       .  A
C1096      C1097   1.403       .  A
C1096      H1101   1.084       .  S
C1097      C1098   1.410       .  A
C1098     Br1099   1.915       .  S
C1103      C1104   1.405       .  A
C1103      C1108   1.390       .  A
C1103      H1110   1.077       .  S
C1104      C1105   1.416       .  A
C1105      C1106   1.402       .  A
C1105     Br1112   1.916       .  S
C1106      C1107   1.404       .  A
C1106      H1111   1.084       .  S
C1107      C1108   1.404       .  A
C1108     Br1109   1.916       .  S
C1113      C1114   1.408       .  A
C1113      C1118   1.402       .  A
C1113      H1120   1.084   1_545  S
C1114      C1115   1.409       .  A
C1115      C1116   1.396       .  A
C1115     Br1122   1.921       .  S
C1116      C1117   1.401       .  A
C1116      H1121   1.076       .  S
C1117      C1118   1.405       .  A
C1118     Br1119   1.912       .  S
C1123      C1124   1.398       .  A
C1123      C1128   1.399       .  A
C1123      H1130   1.084       .  S
C1124      C1125   1.408       .  A
C1125      C1126   1.396       .  A
C1125     Br1132   1.920   1_655  S
C1126      C1127   1.400       .  A
C1126      H1131   1.079       .  S
C1127      C1128   1.416       .  A
C1128     Br1129   1.915       .  S
C1133      C1134   1.403       .  A
C1133      C1138   1.398       .  A
C1133      H1140   1.079       .  S
C1134      C1135   1.417       .  A
C1135      C1136   1.402       .  A
C1135     Br1142   1.910       .  S
C1136      C1137   1.398       .  A
C1136      H1141   1.084       .  S
C1137      C1138   1.408       .  A
C1138     Br1139   1.916   1_655  S
C1143      C1144   1.400       .  A
C1143      C1148   1.394       .  A
C1143      H1150   1.079       .  S
C1144      C1145   1.409       .  A
C1145      C1146   1.399       .  A
C1145     Br1152   1.912       .  S
C1146      C1147   1.401       .  A
C1146      H1151   1.079       .  S
C1147      C1148   1.413       .  A
C1148     Br1149   1.922       .  S
C1153      H1154   1.111       .  S
C1153      C1159   1.533       .  S
C1153      C1158   1.548       .  S
C1153      C1157   1.542       .  S
C1155      H1156   1.110       .  S
C1155      C1161   1.542       .  S
C1155      C1160   1.528       .  S
C1155      C1162   1.543       .  S
C1157      C1160   1.372       .  D
C1157      C1319   1.488       .  S
C1158      C1161   1.382       .  D
C1158      C1326   1.495       .  S
C1159      C1162   1.374       .  D
C1159      C1336   1.485       .  S
C1160      C1289   1.484       .  S
C1161      C1296   1.497       .  S
C1162      C1309   1.486       .  S
C1163      H1164   1.111       .  S
C1163      C1169   1.541       .  S
C1163      C1168   1.538       .  S
C1163      C1167   1.548       .  S
C1165      H1166   1.111       .  S
C1165      C1171   1.547       .  S
C1165      C1170   1.539       .  S
C1165      C1172   1.540       .  S
C1167      C1170   1.375       .  D
C1167      C1269   1.491       .  S
C1168      C1171   1.374       .  D
C1168      C1256   1.490       .  S
C1169      C1172   1.383       .  D
C1169      C1276   1.497       .  S
C1170      C1236   1.490       .  S
C1171      C1226   1.488       .  S
C1172      C1249   1.497       .  S
O1173     Ni1179   1.935       .  S
O1173      C1194   1.272       .  A
O1174      C1183   1.269       .  A
O1175     Ni1179   1.913       .  S
C1176      O1193   1.277       .  A
C1176      O1185   1.276   1_565  A
C1176      C1246   1.488       .  S
O1177     Ni1196   1.912       .  S
O1177      C1183   1.264       .  A
O1178     Ni1388   1.904       .  S
O1178      C1180   1.266       .  A
Ni1179     O1376   1.903       .  S
C1180      O1190   1.268       .  A
C1180      C1306   1.480       .  S
O1181     Ni1389   1.909       .  S
O1181      C1187   1.273       .  A
O1182      C1187   1.276       .  A
C1183      C1229   1.480       .  S
O1184     Ni1371   1.903   1_554  S
O1184      C1186   1.267       .  A
C1186      O1192   1.276       .  A
C1186      C1239   1.490       .  S
C1187      C1286   1.468       .  S
O1189     Ni1196   1.911       .  S
Ni1191     O1385   1.924       .  S
O1193     Ni1383   1.923   1_554  S
C1194      O1195   1.263       .  A
C1194      C1299   1.473       .  S
Ni1196     O1370   1.904   1_554  S
Ni1197     O1373   1.909   1_554  S
O1199     Ni1205   1.915       .  S
O1199      C1220   1.265       .  A
O1200      C1209   1.270       .  A
O1201     Ni1205   1.912       .  S
C1202      O1219   1.280       .  A
C1202      O1211   1.276       .  A
C1202      C1279   1.491       .  S
O1203     Ni1222   1.917       .  S
O1203      C1209   1.266       .  A
O1204     Ni1222   1.907       .  S
O1204      C1206   1.267       .  A
Ni1205     O1210   1.899       .  S
C1206      O1216   1.271       .  A
C1206      C1329   1.473       .  S
O1207     Ni1223   1.922       .  S
O1207      C1213   1.277       .  A
O1208      C1213   1.275   1_455  A
C1209      C1266   1.483       .  S
O1210      C1212   1.266       .  A
C1212      O1218   1.274       .  A
C1212      C1259   1.483       .  S
C1213      C1316   1.468       .  S
O1215     Ni1222   1.905       .  S
Ni1217     O1219   1.931       .  S
C1220      O1221   1.269       .  A
C1220      C1339   1.477       .  S
C1225      C1226   1.400       .  A
C1225      C1230   1.397       .  A
C1225      H1232   1.083       .  S
C1226      C1227   1.412       .  A
C1227      C1228   1.399       .  A
C1227     Br1234   1.907       .  S
C1228      C1229   1.401       .  A
C1228      H1233   1.084       .  S
C1229      C1230   1.415       .  A
C1230     Br1231   1.921       .  S
C1235      C1236   1.399       .  A
C1235      C1240   1.399       .  A
C1235      H1242   1.079       .  S
C1236      C1237   1.407       .  A
C1237      C1238   1.402       .  A
C1237     Br1244   1.909       .  S
C1238      C1239   1.407       .  A
C1238      H1243   1.083   1_565  S
C1239      C1240   1.416       .  A
C1240     Br1433   1.917       .  S
Br1241     C1432   1.917       .  S
C1245      C1246   1.406       .  A
C1245      C1250   1.389       .  A
C1245      H1252   1.083   1_565  S
C1246      C1247   1.415       .  A
C1247      C1248   1.403       .  A
C1247     Br1446   1.922       .  S
C1248      C1249   1.405       .  A
C1248      H1253   1.076       .  S
C1249      C1250   1.409       .  A
C1250     Br1251   1.912       .  S
Br1254     C1439   1.922       .  S
C1255      C1256   1.401       .  A
C1255      C1260   1.399       .  A
C1255      H1262   1.079       .  S
C1256      C1257   1.408       .  A
C1257      C1258   1.402       .  A
C1257     Br1264   1.909       .  S
C1258      C1259   1.405       .  A
C1258      H1263   1.084       .  S
C1259      C1260   1.413       .  A
C1260     Br1261   1.921       .  S
C1265      C1266   1.400       .  A
C1265      C1270   1.398       .  A
C1265      H1272   1.084       .  S
C1266      C1267   1.416       .  A
C1267      C1268   1.400       .  A
C1267     Br1274   1.921       .  S
C1268      C1269   1.402       .  A
C1268      H1273   1.083       .  S
C1269      C1270   1.412       .  A
C1270     Br1271   1.905       .  S
C1275      C1276   1.402       .  A
C1275      C1280   1.401       .  A
C1275      H1282   1.074       .  S
C1276      C1277   1.409       .  A
C1277      C1278   1.391       .  A
C1277     Br1284   1.913       .  S
C1278      C1279   1.408       .  A
C1278      H1283   1.083       .  S
C1279      C1280   1.414       .  A
C1280     Br1281   1.914       .  S
C1285      C1286   1.399       .  A
C1285      C1290   1.397       .  A
C1285      H1292   1.084       .  S
C1286      C1287   1.408       .  A
C1287      C1288   1.400       .  A
C1287     Br1486   1.920       .  S
C1288      C1289   1.403       .  A
C1288      H1293   1.084       .  S
C1289      C1290   1.410       .  A
C1290     Br1291   1.915       .  S
Br1294     C1479   1.920       .  S
C1295      C1296   1.405       .  A
C1295      C1300   1.390       .  A
C1295      H1302   1.077       .  S
C1296      C1297   1.416       .  A
C1297      C1298   1.402       .  A
C1297     Br1304   1.916       .  S
C1298      C1299   1.404       .  A
C1298      H1303   1.084       .  S
C1299      C1300   1.404       .  A
C1300     Br1301   1.916       .  S
C1305      C1306   1.408       .  A
C1305      C1310   1.402       .  A
C1305      H1312   1.084       .  S
C1306      C1307   1.409       .  A
C1307      C1308   1.396       .  A
C1307     Br1314   1.921       .  S
C1308      C1309   1.401       .  A
C1308      H1313   1.076       .  S
C1309      C1310   1.405       .  A
C1310     Br1311   1.912       .  S
C1315      C1316   1.398       .  A
C1315      C1320   1.399       .  A
C1315      H1322   1.084       .  S
C1316      C1317   1.408       .  A
C1317      C1318   1.396       .  A
C1317     Br1324   1.920   1_655  S
C1318      C1319   1.400       .  A
C1318      H1323   1.079       .  S
C1319      C1320   1.416       .  A
C1320     Br1321   1.915       .  S
C1325      C1326   1.402       .  A
C1325      C1330   1.398       .  A
C1325      H1332   1.079       .  S
C1326      C1327   1.417       .  A
C1327      C1328   1.402       .  A
C1327     Br1334   1.910       .  S
C1328      C1329   1.398       .  A
C1328      H1333   1.084       .  S
C1329      C1330   1.408       .  A
C1330     Br1331   1.916   1_655  S
C1335      C1336   1.400       .  A
C1335      C1340   1.394       .  A
C1335      H1342   1.079       .  S
C1336      C1337   1.409       .  A
C1337      C1338   1.398       .  A
C1337     Br1344   1.912       .  S
C1338      C1339   1.401       .  A
C1338      H1343   1.079       .  S
C1339      C1340   1.413       .  A
C1340     Br1341   1.922       .  S
C1345      H1346   1.111       .  S
C1345      C1351   1.533       .  S
C1345      C1350   1.548       .  S
C1345      C1349   1.542       .  S
C1347      H1348   1.110       .  S
C1347      C1353   1.542       .  S
C1347      C1352   1.528       .  S
C1347      C1354   1.543       .  S
C1349      C1352   1.372       .  D
C1349      C1511   1.488       .  S
C1350      C1353   1.383       .  D
C1350      C1518   1.495       .  S
C1351      C1354   1.374       .  D
C1351      C1528   1.485       .  S
C1352      C1481   1.484       .  S
C1353      C1488   1.497       .  S
C1354      C1501   1.486       .  S
C1355      H1356   1.111       .  S
C1355      C1361   1.541       .  S
C1355      C1360   1.538       .  S
C1355      C1359   1.548       .  S
C1357      H1358   1.111       .  S
C1357      C1363   1.547       .  S
C1357      C1362   1.539       .  S
C1357      C1364   1.539       .  S
C1359      C1362   1.375       .  D
C1359      C1461   1.491       .  S
C1360      C1363   1.374       .  D
C1360      C1448   1.490       .  S
C1361      C1364   1.383       .  D
C1361      C1468   1.497       .  S
C1362      C1428   1.490       .  S
C1363      C1418   1.488       .  S
C1364      C1441   1.497       .  S
O1365     Ni1371   1.935       .  S
O1365      C1386   1.272       .  A
O1366      C1375   1.269       .  A
O1367     Ni1371   1.913       .  S
C1368      O1385   1.277       .  A
C1368      O1377   1.276   1_565  A
C1368      C1438   1.488       .  S
O1369     Ni1388   1.912       .  S
O1369      C1375   1.264       .  A
O1370      C1372   1.266       .  A
C1372      O1382   1.268       .  A
C1372      C1498   1.480       .  S
O1373      C1379   1.273       .  A
O1374      C1379   1.276       .  A
C1375      C1421   1.480       .  S
O1376      C1378   1.267       .  A
C1378      O1384   1.276       .  A
C1378      C1431   1.490       .  S
C1379      C1478   1.468       .  S
O1381     Ni1388   1.911       .  S
C1386      O1387   1.263       .  A
C1386      C1491   1.474       .  S
O1391     Ni1397   1.915       .  S
O1391      C1412   1.265       .  A
O1392      C1401   1.270       .  A
O1393     Ni1397   1.912       .  S
C1394      O1411   1.280       .  A
C1394      O1403   1.276       .  A
C1394      C1471   1.491       .  S
O1395     Ni1414   1.917       .  S
O1395      C1401   1.266       .  A
O1396     Ni1414   1.907       .  S
O1396      C1398   1.267       .  A
Ni1397     O1402   1.899       .  S
C1398      O1408   1.271       .  A
C1398      C1521   1.473       .  S
O1399     Ni1415   1.922       .  S
O1399      C1405   1.277       .  A
O1400      C1405   1.275   1_455  A
C1401      C1458   1.483       .  S
O1402      C1404   1.266       .  A
C1404      O1410   1.274       .  A
C1404      C1451   1.483       .  S
C1405      C1508   1.468       .  S
O1407     Ni1414   1.905       .  S
Ni1409     O1411   1.931       .  S
C1412      O1413   1.269       .  A
C1412      C1531   1.478       .  S
C1417      C1418   1.400       .  A
C1417      C1422   1.397       .  A
C1417      H1424   1.083       .  S
C1418      C1419   1.412       .  A
C1419      C1420   1.399       .  A
C1419     Br1426   1.907       .  S
C1420      C1421   1.400       .  A
C1420      H1425   1.084       .  S
C1421      C1422   1.415       .  A
C1422     Br1423   1.921       .  S
C1427      C1428   1.399       .  A
C1427      C1432   1.399       .  A
C1427      H1434   1.079       .  S
C1428      C1429   1.407       .  A
C1429      C1430   1.402       .  A
C1429     Br1436   1.909       .  S
C1430      C1431   1.407       .  A
C1430      H1435   1.083   1_565  S
C1431      C1432   1.416       .  A
C1437      C1438   1.406       .  A
C1437      C1442   1.389       .  A
C1437      H1444   1.083   1_565  S
C1438      C1439   1.415       .  A
C1439      C1440   1.403       .  A
C1440      C1441   1.405       .  A
C1440      H1445   1.076       .  S
C1441      C1442   1.409       .  A
C1442     Br1443   1.912       .  S
C1447      C1448   1.401       .  A
C1447      C1452   1.399       .  A
C1447      H1454   1.079       .  S
C1448      C1449   1.408       .  A
C1449      C1450   1.402       .  A
C1449     Br1456   1.909       .  S
C1450      C1451   1.405       .  A
C1450      H1455   1.084       .  S
C1451      C1452   1.413       .  A
C1452     Br1453   1.921       .  S
C1457      C1458   1.400       .  A
C1457      C1462   1.398       .  A
C1457      H1464   1.084       .  S
C1458      C1459   1.416       .  A
C1459      C1460   1.400       .  A
C1459     Br1466   1.921       .  S
C1460      C1461   1.402       .  A
C1460      H1465   1.083       .  S
C1461      C1462   1.412       .  A
C1462     Br1463   1.905       .  S
C1467      C1468   1.402       .  A
C1467      C1472   1.401       .  A
C1467      H1474   1.074       .  S
C1468      C1469   1.409       .  A
C1469      C1470   1.391       .  A
C1469     Br1476   1.913       .  S
C1470      C1471   1.408       .  A
C1470      H1475   1.083       .  S
C1471      C1472   1.413       .  A
C1472     Br1473   1.914       .  S
C1477      C1478   1.399       .  A
C1477      C1482   1.397       .  A
C1477      H1484   1.084       .  S
C1478      C1479   1.408       .  A
C1479      C1480   1.400       .  A
C1480      C1481   1.403       .  A
C1480      H1485   1.084       .  S
C1481      C1482   1.410       .  A
C1482     Br1483   1.915       .  S
C1487      C1488   1.405       .  A
C1487      C1492   1.390       .  A
C1487      H1494   1.077       .  S
C1488      C1489   1.416       .  A
C1489      C1490   1.402       .  A
C1489     Br1496   1.916       .  S
C1490      C1491   1.404       .  A
C1490      H1495   1.084       .  S
C1491      C1492   1.404       .  A
C1492     Br1493   1.916       .  S
C1497      C1498   1.408       .  A
C1497      C1502   1.402       .  A
C1497      H1504   1.084       .  S
C1498      C1499   1.409       .  A
C1499      C1500   1.396       .  A
C1499     Br1506   1.921       .  S
C1500      C1501   1.401       .  A
C1500      H1505   1.076       .  S
C1501      C1502   1.405       .  A
C1502     Br1503   1.912       .  S
C1507      C1508   1.398       .  A
C1507      C1512   1.399       .  A
C1507      H1514   1.084       .  S
C1508      C1509   1.408       .  A
C1509      C1510   1.396       .  A
C1509     Br1516   1.920   1_655  S
C1510      C1511   1.400       .  A
C1510      H1515   1.079       .  S
C1511      C1512   1.416       .  A
C1512     Br1513   1.915       .  S
C1517      C1518   1.403       .  A
C1517      C1522   1.398       .  A
C1517      H1524   1.079       .  S
C1518      C1519   1.417       .  A
C1519      C1520   1.402       .  A
C1519     Br1526   1.910       .  S
C1520      C1521   1.398       .  A
C1520      H1525   1.084       .  S
C1521      C1522   1.408       .  A
C1522     Br1523   1.916   1_655  S
C1527      C1528   1.400       .  A
C1527      C1532   1.394       .  A
C1527      H1534   1.079       .  S
C1528      C1529   1.409       .  A
C1529      C1530   1.399       .  A
C1529     Br1536   1.912       .  S
C1530      C1531   1.401       .  A
C1530      H1535   1.079       .  S
C1531      C1532   1.413       .  A
C1532     Br1533   1.922       .  S
