geometry optimzed in LAMMPS
_audit_creation_date              2020-12-01 
_audit_creation_method            'lammps2cif' 
_symmetry_space_group_name_H-M    'P1' 
_symmetry_Int_Tables_number       1 
_symmetry_cell_setting            triclinic 
loop_ 
_symmetry_equiv_pos_as_xyz 
  x,y,z 
_cell_length_a                    84.98766943 
_cell_length_b                    84.99167849952427 
_cell_length_c                    84.92926067122903 
_cell_angle_alpha                 90.00407778274462 
_cell_angle_beta                  89.96606643405266 
_cell_angle_gamma                 89.98218256414972 
loop_ 
_atom_site_label 
_atom_site_type_symbol 
_atom_site_fract_x 
_atom_site_fract_y 
_atom_site_fract_z 
_atom_site_charge 
N1          N  0.45449641  0.37487028  0.13445286    -0.25800
N2          N  0.45141289  0.37064601  0.14912418    -0.33600
C3          C  0.46454029  0.37230150  0.15783881     0.02600
C4          C  0.47635775  0.37780932  0.14813381     0.08600
C5          C  0.46965349  0.37931818  0.13342130    -0.04500
H6          H  0.46533048  0.36990537  0.17031977     0.09300
H7          H  0.47527131  0.38356540  0.12281190     0.10500
Cu8        Cu  0.42930389  0.36342227  0.15658840     0.44200
Cu9        Cu  0.43780439  0.37505248  0.11664764     0.42000
Cu10       Cu  0.39812666  0.36382737  0.12701437     0.43900
N11         N  0.40611292  0.35714041  0.16098738    -0.33200
N12         N  0.39480469  0.35732426  0.15027584    -0.27400
C13         C  0.38121405  0.35280688  0.15703013    -0.03500
C14         C  0.38419233  0.34965390  0.17266741     0.08700
C15         C  0.40001263  0.35249332  0.17484198     0.02500
H16         H  0.37003620  0.35197795  0.15101329     0.10100
H17         H  0.40659350  0.35137369  0.18567373     0.09200
N18         N  0.40468297  0.37087109  0.10461560    -0.34600
N19         N  0.41921966  0.37495770  0.10083243    -0.26800
C20         C  0.41962915  0.37904049  0.08553668    -0.02000
C21         C  0.40465710  0.37740621  0.07950154     0.06600
C22         C  0.39543829  0.37223410  0.09182909     0.04700
H23         H  0.43002021  0.38297988  0.07933765     0.09800
H24         H  0.38296813  0.36973133  0.09158018     0.08600
N25         N  0.36859028  0.16195747  0.43636800    -0.25800
N26         N  0.36475715  0.17668035  0.43306955    -0.33600
C27         C  0.36631076  0.18549797  0.44613765     0.02600
C28         C  0.37133854  0.17582031  0.45816306     0.08600
C29         C  0.37268194  0.16100371  0.45164433    -0.04500
H30         H  0.36403136  0.19799238  0.44678051     0.09300
H31         H  0.37646030  0.15036314  0.45749640     0.10500
Cu32       Cu  0.35766117  0.18412385  0.41097477     0.44200
Cu33       Cu  0.36846519  0.14392711  0.41985728     0.42000
Cu34       Cu  0.35642888  0.15442268  0.38029190     0.43900
N35         N  0.35035843  0.18847666  0.38813639    -0.33200
N36         N  0.34982856  0.17766108  0.37694209    -0.27400
C37         C  0.34456781  0.18432025  0.36356761    -0.03500
C38         C  0.34169508  0.20000560  0.36659179     0.08700
C39         C  0.34545987  0.20230001  0.38220477     0.02500
H40         H  0.34303592  0.17820933  0.35250559     0.10100
H41         H  0.34475334  0.21317572  0.38876541     0.09200
N42         N  0.36380071  0.13206888  0.38667479    -0.34600
N43         N  0.36815038  0.12821578  0.40112767    -0.26800
C44         C  0.37241767  0.11296836  0.40132365    -0.02000
C45         C  0.37063918  0.10704488  0.38630404     0.06600
C46         C  0.36518373  0.11938710  0.37728662     0.04700
H47         H  0.37660729  0.10673115  0.41159681     0.09800
H48         H  0.36251755  0.11922523  0.36483632     0.08600
C49         C  0.28557488  0.31760780  0.28618641     0.81700
N50         N  0.28973471  0.30473750  0.29466427    -0.76600
C51         C  0.30240589  0.29606168  0.29029862     0.84200
N52         N  0.31095909  0.30029009  0.27749027    -0.76500
C53         C  0.30679918  0.31315976  0.26900728     0.84300
N54         N  0.29413516  0.32185349  0.27338188    -0.78200
N55         N  0.15224696  0.46337631  0.35516850    -0.25800
N56         N  0.16684592  0.46028138  0.35072820    -0.33600
C57         C  0.17565229  0.47332332  0.35247464     0.02600
C58         C  0.16609034  0.48510047  0.35827229     0.08600
C59         C  0.15135810  0.47847260  0.35985674    -0.04500
H60         H  0.18805252  0.47413516  0.34973952     0.09300
H61         H  0.14079369  0.48415200  0.36411703     0.10500
Cu62       Cu  0.17409044  0.43844722  0.34260603     0.44200
Cu63       Cu  0.13427706  0.44687316  0.35488557     0.42000
Cu64       Cu  0.14446539  0.40771465  0.34135234     0.43900
N65         N  0.17848056  0.41562681  0.33518891    -0.33200
N66         N  0.16768295  0.40442488  0.33468211    -0.27400
C67         C  0.17438234  0.39101617  0.32956997    -0.03500
C68         C  0.19008347  0.39401062  0.32677224     0.08700
C69         C  0.19234212  0.40965506  0.33041796     0.02500
H70         H  0.16829959  0.37994109  0.32813686     0.10100
H71         H  0.20323057  0.41619336  0.32977216     0.09200
N72         N  0.12230156  0.41390395  0.34941015    -0.34600
N73         N  0.11858155  0.42819982  0.35433582    -0.26800
C74         C  0.10342135  0.42831073  0.35889818    -0.02000
C75         C  0.09741819  0.41339574  0.35671415     0.06600
C76         C  0.10961363  0.40452629  0.35070624     0.04700
H77         H  0.09728253  0.43846832  0.36348573     0.09800
H78         H  0.10933268  0.39221075  0.34754816     0.08600
N79         N  0.36811789  0.42252746  0.93724600    -0.25800
N80         N  0.36378564  0.40792016  0.93407060    -0.33600
C81         C  0.36544512  0.39907203  0.94709397     0.02600
C82         C  0.37105692  0.40861472  0.95895244     0.08600
C83         C  0.37265360  0.42337937  0.95239687    -0.04500
H84         H  0.36284812  0.38664501  0.94781397     0.09300
H85         H  0.37688127  0.43391259  0.95813446     0.10500
Cu86       Cu  0.35597100  0.40062385  0.91219660     0.44200
Cu87       Cu  0.36791895  0.44054480  0.92078172     0.42000
Cu88       Cu  0.35505794  0.43025063  0.88145844     0.43900
N89         N  0.34859238  0.39626299  0.88940669    -0.33200
N90         N  0.34823738  0.40703868  0.87816829    -0.27400
C91         C  0.34300272  0.40036671  0.86479052    -0.03500
C92         C  0.33996044  0.38472198  0.86785879     0.08700
C93         C  0.34360620  0.38245833  0.88350497     0.02500
H94         H  0.34162794  0.40643327  0.85368628     0.10100
H95         H  0.34280536  0.37160494  0.89009809     0.09200
N96         N  0.36244080  0.45263418  0.88784262    -0.34600
N97         N  0.36708842  0.45638689  0.90222734    -0.26800
C98         C  0.37116637  0.47167949  0.90251097    -0.02000
C99         C  0.36895175  0.47775996  0.88761662     0.06600
C100        C  0.36344388  0.46544595  0.87857914     0.04700
H101        H  0.37550251  0.47784839  0.91276572     0.09800
H102        H  0.36046436  0.46572533  0.86620436     0.08600
N103        N  0.15099005  0.12170566  0.85185398    -0.25800
N104        N  0.16556670  0.12475611  0.84731780    -0.33600
C105        C  0.17429764  0.11162569  0.84870370     0.02600
C106        C  0.16471561  0.09981517  0.85434822     0.08600
C107        C  0.15004548  0.10652161  0.85624675    -0.04500
H108        H  0.18668403  0.11080227  0.84590527     0.09300
H109        H  0.13951379  0.10085875  0.86060013     0.10500
Cu110      Cu  0.17298441  0.14661754  0.83959440     0.44200
Cu111      Cu  0.13319407  0.13844785  0.85213896     0.42000
Cu112      Cu  0.14405857  0.17787114  0.83948229     0.43900
N113        N  0.17770836  0.16933804  0.83224823    -0.33200
N114        N  0.16717378  0.18080098  0.83219908    -0.27400
C115        C  0.17402961  0.19407108  0.82693765    -0.03500
C116        C  0.18954482  0.19068774  0.82355086     0.08700
C117        C  0.19153951  0.17497554  0.82702704     0.02500
H118        H  0.16818779  0.20531206  0.82580006     0.10100
H119        H  0.20223538  0.16816780  0.82598142     0.09200
N120        N  0.12171683  0.17174333  0.84718942    -0.34600
N121        N  0.11775957  0.15739129  0.85176086    -0.26800
C122        C  0.10252815  0.15737984  0.85609598    -0.02000
C123        C  0.09670976  0.17240562  0.85412681     0.06600
C124        C  0.10910673  0.18124264  0.84849069     0.04700
H125        H  0.09621901  0.14721504  0.86042245     0.09800
H126        H  0.10902076  0.19363222  0.84561449     0.08600
C127        C  0.30600012  0.27310701  0.76800636     0.81700
N128        N  0.31016062  0.28586529  0.77665178    -0.76600
C129        C  0.30153652  0.29000513  0.78944405     0.84200
N130        N  0.28882105  0.28132021  0.79366059    -0.76500
C131        C  0.28465876  0.26856959  0.78500282     0.84300
N132        N  0.29327707  0.26443440  0.77220579    -0.78200
N133        N  0.45365205  0.20793843  0.63439730    -0.25800
N134        N  0.45051317  0.21225966  0.64902518    -0.33600
C135        C  0.46353690  0.21052690  0.65786183     0.02600
C136        C  0.47537671  0.20486111  0.64829517     0.08600
C137        C  0.46878253  0.20332887  0.63351961    -0.04500
H138        H  0.46426779  0.21309185  0.67031498     0.09300
H139        H  0.47448577  0.19907024  0.62295800     0.10500
Cu140      Cu  0.42856963  0.22001870  0.65623858     0.44200
Cu141      Cu  0.43698516  0.20818468  0.61651296     0.42000
Cu142      Cu  0.39728374  0.22037766  0.62694280     0.43900
N143        N  0.40570241  0.22708420  0.66081130    -0.33200
N144        N  0.39428830  0.22721496  0.65021620    -0.27400
C145        C  0.38092906  0.23220499  0.65712119    -0.03500
C146        C  0.38419401  0.23532280  0.67272252     0.08700
C147        C  0.39993138  0.23197725  0.67471815     0.02500
H148        H  0.36970356  0.23333892  0.65125008     0.10100
H149        H  0.40667321  0.23288443  0.68547247     0.09200
N150        N  0.40377924  0.21290835  0.60459276    -0.34600
N151        N  0.41824024  0.20850994  0.60081934    -0.26800
C152        C  0.41850164  0.20411691  0.58559966    -0.02000
C153        C  0.40352752  0.20585802  0.57958551     0.06600
C154        C  0.39446006  0.21144012  0.59186099     0.04700
H155        H  0.42879411  0.19984874  0.57944441     0.09800
H156        H  0.38202353  0.21411020  0.59162381     0.08600
N157        N  0.95341823  0.37948933  0.39784896    -0.25800
N158        N  0.95055605  0.37533552  0.38311738    -0.33600
C159        C  0.96390318  0.37658569  0.37468445     0.02600
C160        C  0.97563066  0.38175660  0.38463755     0.08600
C161        C  0.96866361  0.38350794  0.39920182    -0.04500
H162        H  0.96494825  0.37396002  0.36226546     0.09300
H163        H  0.97420776  0.38744896  0.40996022     0.10500
Cu164      Cu  0.92866536  0.36812628  0.37524993     0.44200
Cu165      Cu  0.93645820  0.37962299  0.41538652     0.42000
Cu166      Cu  0.89735616  0.36692613  0.40440933     0.43900
N167        N  0.90595171  0.36072725  0.37050777    -0.33200
N168        N  0.89455905  0.36019986  0.38112270    -0.27400
C169        C  0.88135688  0.35482520  0.37424357    -0.03500
C170        C  0.88469340  0.35187252  0.35862921     0.08700
C171        C  0.90031642  0.35571077  0.35659628     0.02500
H172        H  0.87019987  0.35324665  0.38016615     0.10100
H173        H  0.90709430  0.35494700  0.34584245     0.09200
N174        N  0.90322121  0.37464539  0.42679562    -0.34600
N175        N  0.91753615  0.37927420  0.43078148    -0.26800
C176        C  0.91748376  0.38371773  0.44597866    -0.02000
C177        C  0.90244112  0.38176896  0.45174415     0.06600
C178        C  0.89365874  0.37601831  0.43935989     0.04700
H179        H  0.92761315  0.38811257  0.45229349     0.09800
H180        H  0.88127046  0.37313228  0.43941779     0.08600
N181        N  0.86505965  0.16099697  0.09450298    -0.25800
N182        N  0.86069344  0.17561716  0.09758181    -0.33600
C183        C  0.86219696  0.18432422  0.08443263     0.02600
C184        C  0.86775057  0.17466050  0.07261589     0.08600
C185        C  0.86945767  0.15998541  0.07932239    -0.04500
H186        H  0.85961440  0.19674760  0.08361636     0.09300
H187        H  0.87375510  0.14941781  0.07368665     0.10500
Cu188      Cu  0.85328005  0.18306921  0.11960605     0.44200
Cu189      Cu  0.86540403  0.14322502  0.11116883     0.42000
Cu190      Cu  0.85329733  0.15365699  0.15067953     0.43900
N191        N  0.84635183  0.18751024  0.14258172    -0.33200
N192        N  0.84630420  0.17680629  0.15389792    -0.27400
C193        C  0.84131984  0.18352383  0.16735414    -0.03500
C194        C  0.83811193  0.19912810  0.16426899     0.08700
C195        C  0.84140975  0.20132153  0.14852714     0.02500
H196        H  0.84024721  0.17751628  0.17853034     0.10100
H197        H  0.84041095  0.21213431  0.14190120     0.09200
N198        N  0.86115526  0.13143949  0.14436937    -0.34600
N199        N  0.86554751  0.12764882  0.12991099    -0.26800
C200        C  0.87007611  0.11248864  0.12968370    -0.02000
C201        C  0.86841555  0.10653805  0.14469274     0.06600
C202        C  0.86276970  0.11877971  0.15374495     0.04700
H203        H  0.87429852  0.10631350  0.11937398     0.09800
H204        H  0.86007429  0.11854771  0.16619025     0.08600
C205        C  0.80718664  0.31197391  0.26382560     0.81700
N206        N  0.81119299  0.29920641  0.25510594    -0.76600
C207        C  0.80251526  0.29524843  0.24230232     0.84200
N208        N  0.78988671  0.30409175  0.23817670    -0.76500
C209        C  0.78587175  0.31684418  0.24690084     0.84300
N210        N  0.79454673  0.32081780  0.25970394    -0.78200
N211        N  0.65159203  0.46296256  0.18058214    -0.25800
N212        N  0.66628533  0.45981657  0.18464909    -0.33600
C213        C  0.67494239  0.47301639  0.18341525     0.02600
C214        C  0.66519063  0.48496423  0.17835512     0.08600
C215        C  0.65049986  0.47826415  0.17664729    -0.04500
H216        H  0.68736742  0.47382292  0.18601567     0.09300
H217        H  0.63982800  0.48403836  0.17282442     0.10500
Cu218      Cu  0.67384203  0.43776869  0.19182066     0.44200
Cu219      Cu  0.63374232  0.44626388  0.18050943     0.42000
Cu220      Cu  0.64431469  0.40688496  0.19314725     0.43900
N221        N  0.67836858  0.41493490  0.19909317    -0.33200
N222        N  0.66761078  0.40369428  0.19964333    -0.27400
C223        C  0.67434079  0.39035746  0.20489142    -0.03500
C224        C  0.69001127  0.39343826  0.20775079     0.08700
C225        C  0.69222914  0.40906053  0.20397858     0.02500
H226        H  0.66828072  0.37928773  0.20645364     0.10100
H227        H  0.70307045  0.41567222  0.20469830     0.09200
N228        N  0.62198713  0.41308639  0.18551105    -0.34600
N229        N  0.61813521  0.42745276  0.18090180    -0.26800
C230        C  0.60295284  0.42752437  0.17640898    -0.02000
C231        C  0.59705753  0.41251621  0.17830150     0.06600
C232        C  0.60936182  0.40363251  0.18407503     0.04700
H233        H  0.59674408  0.43770259  0.17197715     0.09800
H234        H  0.60922056  0.39122932  0.18689187     0.08600
N235        N  0.91444168  0.96466857  0.18185543    -0.25800
N236        N  0.89975057  0.96151204  0.18593602    -0.33600
C237        C  0.89095943  0.97455566  0.18416585     0.02600
C238        C  0.90061348  0.98640401  0.17872761     0.08600
C239        C  0.91539252  0.97982088  0.17736142    -0.04500
H240        H  0.87847831  0.97528500  0.18652572     0.09300
H241        H  0.92600472  0.98553615  0.17327654     0.10500
Cu242      Cu  0.89218505  0.93958203  0.19336319     0.44200
Cu243      Cu  0.93242407  0.94814258  0.18214252     0.42000
Cu244      Cu  0.92155863  0.90863271  0.19381593     0.43900
N245        N  0.88752781  0.91663073  0.20006320    -0.33200
N246        N  0.89821612  0.90530800  0.20021183    -0.27400
C247        C  0.89139402  0.89185151  0.20502613    -0.03500
C248        C  0.87574048  0.89495426  0.20802646     0.08700
C249        C  0.87363094  0.91070649  0.20478315     0.02500
H250        H  0.89738086  0.88069603  0.20621991     0.10100
H251        H  0.86283607  0.91737145  0.20573975     0.09200
N252        N  0.94405302  0.91489178  0.18662224    -0.34600
N253        N  0.94801456  0.92934168  0.18239150    -0.26800
C254        C  0.96325790  0.92946873  0.17809810    -0.02000
C255        C  0.96909057  0.91440534  0.17973049     0.06600
C256        C  0.95668005  0.90543246  0.18514196     0.04700
H257        H  0.96954945  0.93972455  0.17396287     0.09800
H258        H  0.95675304  0.89297156  0.18767863     0.08600
N259        N  0.69719261  0.66074603  0.09616887    -0.25800
N260        N  0.70150581  0.67537894  0.09924239    -0.33600
C261        C  0.69979779  0.68414795  0.08617081     0.02600
C262        C  0.69416603  0.67452364  0.07438591     0.08600
C263        C  0.69261908  0.65979509  0.08103563    -0.04500
H264        H  0.70242355  0.69656363  0.08535552     0.09300
H265        H  0.68843432  0.64920969  0.07536135     0.10500
Cu266      Cu  0.70938801  0.68276945  0.12105029     0.44200
Cu267      Cu  0.69739792  0.64286887  0.11279241     0.42000
Cu268      Cu  0.70966762  0.65362094  0.15221621     0.43900
N269        N  0.71665508  0.68734211  0.14382558    -0.33200
N270        N  0.71673343  0.67674968  0.15523989    -0.27400
C271        C  0.72188960  0.68355950  0.16857447    -0.03500
C272        C  0.72518593  0.69910003  0.16527836     0.08700
C273        C  0.72176596  0.70116422  0.14955953     0.02500
H274        H  0.72303492  0.67765802  0.17979712     0.10100
H275        H  0.72278334  0.71189848  0.14280949     0.09200
N276        N  0.70192357  0.63133575  0.14608831    -0.34600
N277        N  0.69748447  0.62740104  0.13168654    -0.26800
C278        C  0.69295562  0.61223519  0.13165650    -0.02000
C279        C  0.69466414  0.60644368  0.14673165     0.06600
C280        C  0.70035407  0.61877930  0.15560968     0.04700
H281        H  0.68866252  0.60595925  0.12144962     0.09800
H282        H  0.70307450  0.61869315  0.16804798     0.08600
C283        C  0.76379509  0.79541173  0.24150493     0.81700
N284        N  0.77661455  0.80403097  0.23747292    -0.76600
C285        C  0.78083231  0.81664091  0.24631019     0.84200
N286        N  0.77217242  0.82068719  0.25910993    -0.76500
C287        C  0.75934861  0.81207215  0.26312605     0.84300
N288        N  0.75513199  0.79946187  0.25429789    -0.78200
N289        N  0.61236837  0.87910839  0.39628666    -0.25800
N290        N  0.61551336  0.87457381  0.38172208    -0.33600
C291        C  0.60249335  0.87616836  0.37285340     0.02600
C292        C  0.59064025  0.88196147  0.38232363     0.08600
C293        C  0.59722695  0.88371456  0.39708327    -0.04500
H294        H  0.60175105  0.87334615  0.36045654     0.09300
H295        H  0.59148713  0.88804365  0.40759759     0.10500
Cu296      Cu  0.63741044  0.86655564  0.37463450     0.44200
Cu297      Cu  0.62900679  0.87896381  0.41424662     0.42000
Cu298      Cu  0.66857049  0.86615496  0.40409160     0.43900
N299        N  0.66029093  0.85942811  0.37019773    -0.33200
N300        N  0.67164604  0.85929064  0.38085615    -0.27400
C301        C  0.68503911  0.85428153  0.37403805    -0.03500
C302        C  0.68186187  0.85115420  0.35842529     0.08700
C303        C  0.66613898  0.85451256  0.35633102     0.02500
H304        H  0.69622570  0.85312805  0.37998143     0.10100
H305        H  0.65945732  0.85358660  0.34554037     0.09200
N306        N  0.66213157  0.87393341  0.42633332    -0.34600
N307        N  0.64771874  0.87854680  0.43003336    -0.26800
C308        C  0.64746362  0.88294579  0.44525649    -0.02000
C309        C  0.66239120  0.88098731  0.45134081     0.06600
C310        C  0.67142418  0.87528108  0.43909806     0.04700
H311        H  0.63719467  0.88729640  0.45138822     0.09800
H312        H  0.68380516  0.87236980  0.43939984     0.08600
N313        N  0.95375376  0.20796598  0.89824212    -0.25800
N314        N  0.95078796  0.21222979  0.88356213    -0.33600
C315        C  0.96407700  0.21106263  0.87502535     0.02600
C316        C  0.97589588  0.20582784  0.88483749     0.08600
C317        C  0.96902767  0.20395846  0.89944869    -0.04500
H318        H  0.96498490  0.21363312  0.86258303     0.09300
H319        H  0.97462422  0.19980275  0.91009893     0.10500
Cu320      Cu  0.92872397  0.21898387  0.87573560     0.44200
Cu321      Cu  0.93672813  0.20732323  0.91575890     0.42000
Cu322      Cu  0.89702784  0.21859442  0.90441569     0.43900
N323        N  0.90575400  0.22533921  0.87065931    -0.33200
N324        N  0.89417105  0.22525424  0.88107899    -0.27400
C325        C  0.88082501  0.22997114  0.87396970    -0.03500
C326        C  0.88427458  0.23313289  0.85840841     0.08700
C327        C  0.90010884  0.23009223  0.85665875     0.02500
H328        H  0.86949684  0.23094864  0.87969143     0.10100
H329        H  0.90702209  0.23118950  0.84601964     0.09200
N330        N  0.90319608  0.21135744  0.92692276    -0.34600
N331        N  0.91764899  0.20725538  0.93102482    -0.26800
C332        C  0.91768735  0.20307727  0.94630381    -0.02000
C333        C  0.90257382  0.20466204  0.95200803     0.06600
C334        C  0.89365362  0.20990735  0.93949577     0.04700
H335        H  0.92793483  0.19912975  0.95272382     0.09800
H336        H  0.88118188  0.21241806  0.93948079     0.08600
N337        N  0.65069972  0.12082837  0.68223609    -0.25800
N338        N  0.66527345  0.12393291  0.68673512    -0.33600
C339        C  0.67404809  0.11082953  0.68525729     0.02600
C340        C  0.66449249  0.09900157  0.67958082     0.08600
C341        C  0.64979928  0.10566355  0.67777756    -0.04500
H342        H  0.68644285  0.11003803  0.68799569     0.09300
H343        H  0.63927576  0.09998298  0.67344710     0.10500
Cu344      Cu  0.67264434  0.14592464  0.69428851     0.44200
Cu345      Cu  0.63279608  0.13742527  0.68199021     0.42000
Cu346      Cu  0.64350999  0.17706955  0.69347728     0.43900
N347        N  0.67735274  0.16903844  0.70050207    -0.33200
N348        N  0.66673995  0.18042757  0.70015458    -0.27400
C349        C  0.67357752  0.19399832  0.70460015    -0.03500
C350        C  0.68917389  0.19091911  0.70786742     0.08700
C351        C  0.69122892  0.17504709  0.70517607     0.02500
H352        H  0.66765115  0.20522973  0.70530921     0.10100
H353        H  0.70198735  0.16837296  0.70641233     0.09200
N354        N  0.62107744  0.17067043  0.68630028    -0.34600
N355        N  0.61716885  0.15618437  0.68214821    -0.26800
C356        C  0.60190448  0.15596169  0.67795729    -0.02000
C357        C  0.59600817  0.17100159  0.67957580     0.06600
C358        C  0.60839989  0.18005976  0.68486301     0.04700
H359        H  0.59564225  0.14565843  0.67391152     0.09800
H360        H  0.60827677  0.19252933  0.68735749     0.08600
C361        C  0.80307372  0.28862433  0.74115120     0.81700
N362        N  0.78996778  0.28050995  0.73701260    -0.76600
C363        C  0.78552314  0.26769507  0.74543636     0.84200
N364        N  0.79424596  0.26293979  0.75795050    -0.76500
C365        C  0.80735850  0.27106403  0.76208171     0.84300
N366        N  0.81178552  0.28387814  0.75365494    -0.78200
N367        N  0.86877733  0.42415888  0.59565179    -0.25800
N368        N  0.86448054  0.40946413  0.59844164    -0.33600
C369        C  0.86602401  0.40102229  0.58512652     0.02600
C370        C  0.87153865  0.41093645  0.57350921     0.08600
C371        C  0.87318213  0.42548383  0.58049858    -0.04500
H372        H  0.86335499  0.38864003  0.58402549     0.09300
H373        H  0.87727566  0.43621680  0.57502882     0.10500
Cu374      Cu  0.85691117  0.40160366  0.62025563     0.44200
Cu375      Cu  0.86863070  0.44169814  0.61255704     0.42000
Cu376      Cu  0.85743538  0.43040399  0.65202138     0.43900
N377        N  0.85050842  0.39667309  0.64327275    -0.33200
N378        N  0.85076484  0.40710289  0.65484396    -0.27400
C379        C  0.84610807  0.40006929  0.66825214    -0.03500
C380        C  0.84279773  0.38455224  0.66486877     0.08700
C381        C  0.84567994  0.38273473  0.64899976     0.02500
H382        H  0.84523935  0.40582634  0.67957371     0.10100
H383        H  0.84442801  0.37210257  0.64212623     0.09200
N384        N  0.86440972  0.45297930  0.64592967    -0.34600
N385        N  0.86841204  0.45708205  0.63144652    -0.26800
C386        C  0.87246964  0.47237004  0.63132959    -0.02000
C387        C  0.87092981  0.47808549  0.64644114     0.06600
C388        C  0.86581965  0.46556921  0.65544023     0.04700
H389        H  0.87637569  0.47877246  0.62103712     0.09800
H390        H  0.86341228  0.46555408  0.66794762     0.08600
N391        N  0.61093740  0.70559060  0.89896770    -0.25800
N392        N  0.61373882  0.71015124  0.88434470    -0.33600
C393        C  0.60038765  0.70898416  0.87591430     0.02600
C394        C  0.58871288  0.70344173  0.88575320     0.08600
C395        C  0.59572926  0.70138736  0.90025345    -0.04500
H396        H  0.59931304  0.71186829  0.86355605     0.09300
H397        H  0.59024902  0.69708975  0.91091549     0.10500
Cu398      Cu  0.63564732  0.71757190  0.87662519     0.44200
Cu399      Cu  0.62798541  0.70520167  0.91640748     0.42000
Cu400      Cu  0.66718841  0.71795784  0.90562582     0.43900
N401        N  0.65855215  0.72440806  0.87179750    -0.33200
N402        N  0.67003281  0.72455738  0.88231839    -0.27400
C403        C  0.68335067  0.72954239  0.87534793    -0.03500
C404        C  0.67999737  0.73265042  0.85977131     0.08700
C405        C  0.66424708  0.72929989  0.85785948     0.02500
H406        H  0.69457908  0.73079050  0.88119088     0.10100
H407        H  0.65742045  0.73032261  0.84717062     0.09200
N408        N  0.66113912  0.71037145  0.92799970    -0.34600
N409        N  0.64681102  0.70569796  0.93190511    -0.26800
C410        C  0.64673619  0.70142600  0.94715045    -0.02000
C411        C  0.66170756  0.70353264  0.95302485     0.06600
C412        C  0.67058044  0.70919836  0.94066108     0.04700
H413        H  0.63655668  0.69708661  0.95343774     0.09800
H414        H  0.68294027  0.71220008  0.94080987     0.08600
N415        N  0.69687167  0.92421377  0.59511352    -0.25800
N416        N  0.70071276  0.90943169  0.59813110    -0.33600
C417        C  0.69912677  0.90086393  0.58489950     0.02600
C418        C  0.69406822  0.91075476  0.57305686     0.08600
C419        C  0.69273705  0.92545126  0.57986092    -0.04500
H420        H  0.70139036  0.88838237  0.58402318     0.09300
H421        H  0.68893586  0.93619816  0.57421917     0.10500
Cu422      Cu  0.70772807  0.90150782  0.62012852     0.44200
Cu423      Cu  0.69701201  0.94188734  0.61201790     0.42000
Cu424      Cu  0.70763432  0.93015529  0.65170981     0.43900
N425        N  0.71433371  0.89640524  0.64306683    -0.33200
N426        N  0.71427464  0.90684844  0.65462174    -0.27400
C427        C  0.71910779  0.89981887  0.66797096    -0.03500
C428        C  0.72233307  0.88427468  0.66457072     0.08700
C429        C  0.71920881  0.88245338  0.64874137     0.02500
H430        H  0.72014763  0.90559346  0.67926918     0.10100
H431        H  0.72033549  0.87181177  0.64186219     0.09200
N432        N  0.70079617  0.95279468  0.64566539    -0.34600
N433        N  0.69700993  0.95709119  0.63117637    -0.26800
C434        C  0.69295565  0.97239775  0.63124213    -0.02000
C435        C  0.69427595  0.97790544  0.64646609     0.06600
C436        C  0.69925495  0.96525153  0.65533457     0.04700
H437        H  0.68918950  0.97895381  0.62100267     0.09800
H438        H  0.70147512  0.96504827  0.66787218     0.08600
C439        C  0.76093796  0.78869426  0.74206793     0.81700
N440        N  0.77354289  0.77984172  0.73784408    -0.76600
C441        C  0.77750797  0.76698213  0.74644139     0.84200
N442        N  0.76881052  0.76292370  0.75921686    -0.76500
C443        C  0.75620554  0.77177880  0.76344182     0.84300
N444        N  0.75224442  0.78463398  0.75483977    -0.78200
N445        N  0.91366424  0.62158633  0.68094270    -0.25800
N446        N  0.89901445  0.62433108  0.68544293    -0.33600
C447        C  0.89061975  0.61097869  0.68412732     0.02600
C448        C  0.90050783  0.59937440  0.67855126     0.08600
C449        C  0.91499973  0.60641452  0.67663339    -0.04500
H450        H  0.87825967  0.60986134  0.68692723     0.09300
H451        H  0.92568063  0.60098570  0.67233726     0.10500
Cu452      Cu  0.89109236  0.64611217  0.69299749     0.44200
Cu453      Cu  0.93108422  0.63862293  0.68059976     0.42000
Cu454      Cu  0.91974464  0.67771024  0.69323289     0.43900
N455        N  0.88611202  0.66886367  0.70019574    -0.33200
N456        N  0.89656312  0.68039790  0.70033219    -0.27400
C457        C  0.88954506  0.69366364  0.70539409    -0.03500
C458        C  0.87399973  0.69022377  0.70855323     0.08700
C459        C  0.87216386  0.67446689  0.70515825     0.02500
H460        H  0.89528988  0.70495247  0.70649872     0.10100
H461        H  0.86148686  0.66761479  0.70605141     0.09200
N462        N  0.94210628  0.67199852  0.68533621    -0.34600
N463        N  0.94624839  0.65769662  0.68078436    -0.26800
C464        C  0.96143370  0.65787634  0.67632432    -0.02000
C465        C  0.96701418  0.67299472  0.67816762     0.06600
C466        C  0.95454619  0.68168178  0.68388071     0.04700
H467        H  0.96787260  0.64777569  0.67202737     0.09800
H468        H  0.95447879  0.69407270  0.68673870     0.08600
N469        N  0.41439223  0.96406414  0.35092919    -0.25800
N470        N  0.39971762  0.96091863  0.34680614    -0.33600
C471        C  0.39098001  0.97403656  0.34833567     0.02600
C472        C  0.40066443  0.98591844  0.35365698     0.08600
C473        C  0.41539604  0.97927550  0.35520103    -0.04500
H474        H  0.37853459  0.97481552  0.34582049     0.09300
H475        H  0.42602539  0.98501226  0.35918009     0.10500
Cu476      Cu  0.39223910  0.93893208  0.33941797     0.44200
Cu477      Cu  0.43233746  0.94750963  0.35070807     0.42000
Cu478      Cu  0.42186364  0.90818721  0.33811472     0.43900
N479        N  0.38770338  0.91601658  0.33246496    -0.33200
N480        N  0.39849269  0.90479864  0.33196831    -0.27400
C481        C  0.39172764  0.89134338  0.32708615    -0.03500
C482        C  0.37600012  0.89432644  0.32441552     0.08700
C483        C  0.37378793  0.91001361  0.32791473     0.02500
H484        H  0.39779439  0.88025422  0.32567587     0.10100
H485        H  0.36290437  0.91657048  0.32728335     0.09200
N486        N  0.44434330  0.91455533  0.34515784    -0.34600
N487        N  0.44815075  0.92892610  0.34977556    -0.26800
C488        C  0.46345479  0.92915897  0.35381851    -0.02000
C489        C  0.46948408  0.91424700  0.35160864     0.06600
C490        C  0.45712861  0.90525209  0.34613089     0.04700
H491        H  0.46965521  0.93937714  0.35816101     0.09800
H492        H  0.45734647  0.89287532  0.34321043     0.08600
N493        N  0.11241702  0.87932117  0.13605977    -0.25800
N494        N  0.11549957  0.87507978  0.15072176    -0.33600
C495        C  0.10234793  0.87656098  0.15943525     0.02600
C496        C  0.09049225  0.88197857  0.14975343     0.08600
C497        C  0.09720839  0.88362774  0.13504097    -0.04500
H498        H  0.10152929  0.87395980  0.17187439     0.09300
H499        H  0.09152199  0.88772548  0.12441610     0.10500
Cu500      Cu  0.13749587  0.86761797  0.15814900     0.44200
Cu501      Cu  0.12917464  0.87926125  0.11824670     0.42000
Cu502      Cu  0.16856445  0.86616544  0.12875541     0.43900
N503        N  0.16031366  0.86038342  0.16281296    -0.33200
N504        N  0.17164081  0.85977409  0.15212999    -0.27400
C505        C  0.18493522  0.85460161  0.15901215    -0.03500
C506        C  0.18172345  0.85185433  0.17469877     0.08700
C507        C  0.16608197  0.85562129  0.17676198     0.02500
H508        H  0.19606990  0.85302314  0.15304612     0.10100
H509        H  0.15937893  0.85498913  0.18757376     0.09200
N510        N  0.16235122  0.87399512  0.10646804    -0.34600
N511        N  0.14802431  0.87877842  0.10267031    -0.26800
C512        C  0.14797152  0.88334814  0.08750174    -0.02000
C513        C  0.16294470  0.88132590  0.08155515     0.06600
C514        C  0.17179246  0.87539175  0.09381035     0.04700
H515        H  0.13781569  0.88787895  0.08132491     0.09800
H516        H  0.18415581  0.87240589  0.09360446     0.08600
C517        C  0.26305649  0.79531814  0.29145665     0.81700
N518        N  0.25449147  0.79978568  0.27874515    -0.76600
C519        C  0.25889996  0.81254055  0.27021504     0.84200
N520        N  0.27183849  0.82087787  0.27444486    -0.76500
C521        C  0.28042063  0.81640397  0.28715070     0.84300
N522        N  0.27599559  0.80365646  0.29569207    -0.78200
N523        N  0.19635144  0.66239485  0.43871621    -0.25800
N524        N  0.20056018  0.67700961  0.43541841    -0.33600
C525        C  0.19905188  0.68590114  0.44844341     0.02600
C526        C  0.19365184  0.67637966  0.46043614     0.08600
C527        C  0.19203383  0.66158210  0.45394218    -0.04500
H528        H  0.20160003  0.69834015  0.44907571     0.09300
H529        H  0.18793707  0.65104694  0.45978062     0.10500
Cu530      Cu  0.20796768  0.68417637  0.41332557     0.44200
Cu531      Cu  0.19643958  0.64435033  0.42224968     0.42000
Cu532      Cu  0.20829573  0.65458140  0.38244671     0.43900
N533        N  0.21493612  0.68852893  0.39036988    -0.33200
N534        N  0.21505339  0.67779790  0.37907905    -0.27400
C535        C  0.22005978  0.68451173  0.36562473    -0.03500
C536        C  0.22320677  0.70013636  0.36870215     0.08700
C537        C  0.21986299  0.70233761  0.38442758     0.02500
H538        H  0.22123676  0.67848070  0.35447265     0.10100
H539        H  0.22084559  0.71315094  0.39105411     0.09200
N540        N  0.20102937  0.63224584  0.38911509    -0.34600
N541        N  0.19680295  0.62851824  0.40364423    -0.26800
C542        C  0.19272445  0.61323033  0.40406629    -0.02000
C543        C  0.19447544  0.60713293  0.38911678     0.06600
C544        C  0.19973584  0.61942396  0.37990096     0.04700
H545        H  0.18872207  0.60706601  0.41446642     0.09800
H546        H  0.20238964  0.61911384  0.36744551     0.08600
N547        N  0.19682259  0.92425809  0.93777394    -0.25800
N548        N  0.20142321  0.90969454  0.93477188    -0.33600
C549        C  0.20008880  0.90103983  0.94798102     0.02600
C550        C  0.19439125  0.91067148  0.95976644     0.08600
C551        C  0.19243550  0.92528226  0.95296518    -0.04500
H552        H  0.20298158  0.88868978  0.94888882     0.09300
H553        H  0.18809190  0.93584230  0.95858004     0.10500
Cu554      Cu  0.20912473  0.90234207  0.91277936     0.44200
Cu555      Cu  0.19654396  0.94197880  0.92100638     0.42000
Cu556      Cu  0.20944589  0.93163688  0.88155856     0.43900
N557        N  0.21620339  0.89779381  0.88983771    -0.33200
N558        N  0.21632888  0.90843465  0.87846066    -0.27400
C559        C  0.22135795  0.90163004  0.86506062    -0.03500
C560        C  0.22452580  0.88603452  0.86824331     0.08700
C561        C  0.22115146  0.88394140  0.88398675     0.02500
H562        H  0.22249722  0.90757492  0.85385734     0.10100
H563        H  0.22209632  0.87316459  0.89067553     0.09200
N564        N  0.20168575  0.95388410  0.88790310    -0.34600
N565        N  0.19700521  0.95762740  0.90228809    -0.26800
C566        C  0.19260922  0.97282861  0.90249837    -0.02000
C567        C  0.19463711  0.97884961  0.88756066     0.06600
C568        C  0.20038543  0.96661279  0.87856909     0.04700
H569        H  0.18820675  0.97898152  0.91274502     0.09800
H570        H  0.20334129  0.96688814  0.86618071     0.08600
N571        N  0.11020852  0.70858544  0.63616570    -0.25800
N572        N  0.11330065  0.71271170  0.65086087    -0.33600
C573        C  0.10016963  0.71111355  0.65956992     0.02600
C574        C  0.08835052  0.70574609  0.64983569     0.08600
C575        C  0.09502936  0.70424942  0.63511376    -0.04500
H576        H  0.09934401  0.71360186  0.67203136     0.09300
H577        H  0.08934438  0.70023026  0.62445534     0.10500
Cu578      Cu  0.13524555  0.72011799  0.65841521     0.44200
Cu579      Cu  0.12679451  0.70868197  0.61828735     0.42000
Cu580      Cu  0.16633138  0.72014802  0.62912436     0.43900
N581        N  0.15818939  0.72688474  0.66303710    -0.33200
N582        N  0.16953791  0.72689686  0.65236353    -0.27400
C583        C  0.18298043  0.73177943  0.65914307    -0.03500
C584        C  0.17985507  0.73495296  0.67475767     0.08700
C585        C  0.16409646  0.73175165  0.67689431     0.02500
H586        H  0.19416180  0.73285696  0.65315916     0.10100
H587        H  0.15742176  0.73279951  0.68769267     0.09200
N588        N  0.16003490  0.71296310  0.60666042    -0.34600
N589        N  0.14555134  0.70886435  0.60270331    -0.26800
C590        C  0.14532398  0.70481281  0.58739529    -0.02000
C591        C  0.16036387  0.70646647  0.58151962     0.06600
C592        C  0.16942991  0.71162137  0.59396669     0.04700
H593        H  0.13500309  0.70089918  0.58107464     0.09800
H594        H  0.18188946  0.71416771  0.59384889     0.08600
C595        C  0.27889220  0.76785501  0.78734299     0.81700
N596        N  0.27458133  0.78053727  0.79604760    -0.76600
C597        C  0.26192383  0.78926037  0.79171938     0.84200
N598        N  0.25353786  0.78525679  0.77873713    -0.76500
C599        C  0.25785800  0.77258959  0.77002655     0.84300
N600        N  0.27050905  0.76386495  0.77435061    -0.78200
N601        N  0.41286977  0.62095747  0.85306590    -0.25800
N602        N  0.39816654  0.62410707  0.84905326    -0.33600
C603        C  0.38948065  0.61094802  0.85047792     0.02600
C604        C  0.39922748  0.59902826  0.85561851     0.08600
C605        C  0.41394743  0.60570053  0.85716380    -0.04500
H606        H  0.37702992  0.61015943  0.84799863     0.09300
H607        H  0.42461956  0.59995245  0.86102925     0.10500
Cu608      Cu  0.39067391  0.64613729  0.84179873     0.44200
Cu609      Cu  0.43071259  0.63761349  0.85292924     0.42000
Cu610      Cu  0.42050010  0.67686575  0.83976498     0.43900
N611        N  0.38630169  0.66890317  0.83425780    -0.33200
N612        N  0.39712042  0.68007049  0.83339071    -0.27400
C613        C  0.39035965  0.69338079  0.82808698    -0.03500
C614        C  0.37461402  0.69034947  0.82553814     0.08700
C615        C  0.37239257  0.67479286  0.82954384     0.02500
H616        H  0.39643314  0.70441626  0.82634095     0.10100
H617        H  0.36149730  0.66824447  0.82914658     0.09200
N618        N  0.44279712  0.67057727  0.84756109    -0.34600
N619        N  0.44648387  0.65623438  0.85237266    -0.26800
C620        C  0.46163123  0.65605051  0.85696867    -0.02000
C621        C  0.46769274  0.67096541  0.85493176     0.06600
C622        C  0.45551801  0.67991263  0.84896972     0.04700
H623        H  0.46769398  0.64586424  0.86158743     0.09800
H624        H  0.45580765  0.69228153  0.84603288     0.08600
C625        C  0.33999817  0.72014105  0.81072459     0.18500
C626        C  0.34285973  0.73614563  0.80798328    -0.10600
C627        C  0.33058515  0.74602052  0.80319142    -0.11400
C628        C  0.31540696  0.73992544  0.80112581     0.20100
C629        C  0.31255818  0.72391874  0.80384340    -0.13500
C630        C  0.32482373  0.71405041  0.80863225    -0.11700
C631        C  0.30274386  0.75005693  0.79625037     0.01100
C632        C  0.29195789  0.75832104  0.79217979    -0.31800
C633        C  0.35256011  0.70996698  0.81578291     0.02400
C634        C  0.36280663  0.70118203  0.82015488    -0.33400
H635        H  0.35454018  0.74097895  0.80957402     0.13500
H636        H  0.33291624  0.75837511  0.80112289     0.13300
H637        H  0.30086865  0.71908253  0.80228194     0.13200
H638        H  0.32247673  0.70169946  0.81072800     0.12200
C639        C  0.23072049  0.75942732  0.73274092     0.18500
C640        C  0.21951060  0.76987941  0.72666968    -0.10600
C641        C  0.20944368  0.76505692  0.71458086    -0.11400
C642        C  0.21055278  0.74976372  0.70852360     0.20100
C643        C  0.22186611  0.73936137  0.71448744    -0.13500
C644        C  0.23193339  0.74418411  0.72657697    -0.11700
C645        C  0.19989183  0.74465094  0.69642030     0.01100
C646        C  0.19080230  0.74026998  0.68646273    -0.31800
C647        C  0.24066916  0.76419446  0.74557211     0.02400
C648        C  0.24867985  0.76807480  0.75660815    -0.33400
H649        H  0.21845872  0.78168463  0.73137667     0.13500
H650        H  0.20072775  0.77318326  0.71006040     0.13300
H651        H  0.22280900  0.72750762  0.70989366     0.13200
H652        H  0.24053806  0.73600692  0.73120750     0.12200
C653        C  0.24829307  0.82655437  0.81869461     0.18500
C654        C  0.23229066  0.82902475  0.82180824    -0.10600
C655        C  0.22759517  0.84147083  0.83150551    -0.11400
C656        C  0.23887783  0.85149951  0.83812519     0.20100
C657        C  0.25487505  0.84909841  0.83492159    -0.13500
C658        C  0.25957148  0.83664911  0.82522118    -0.11700
C659        C  0.23404327  0.86402711  0.84844961     0.01100
C660        C  0.22980655  0.87423193  0.85735218    -0.31800
C661        C  0.25314467  0.81353328  0.80901384     0.02400
C662        C  0.25718790  0.80250017  0.80106482    -0.33400
H663        H  0.22347647  0.82128464  0.81683321     0.13500
H664        H  0.21519433  0.84320763  0.83392777     0.13300
H665        H  0.26369343  0.85676266  0.83999660     0.13200
H666        H  0.27197815  0.83483469  0.82289703     0.12200
C667        C  0.18251757  0.68869181  0.50556070     0.18500
C668        C  0.18751685  0.70293364  0.51221311    -0.10600
C669        C  0.18326340  0.70677801  0.52767270    -0.11400
C670        C  0.17399640  0.69639539  0.53653310     0.20100
C671        C  0.16900557  0.68216853  0.52986880    -0.13500
C672        C  0.17325433  0.67832901  0.51442956    -0.11700
C673        C  0.16953154  0.70029468  0.55242379     0.01100
C674        C  0.16550765  0.70324369  0.56572187    -0.31800
C675        C  0.18678677  0.68467757  0.48964310     0.02400
C676        C  0.19005786  0.68099492  0.47632015    -0.33400
H677        H  0.19466969  0.71104489  0.50546174     0.13500
H678        H  0.18717725  0.71781747  0.53269969     0.13300
H679        H  0.16183073  0.67406304  0.53659497     0.13200
H680        H  0.16931000  0.66730051  0.50940891     0.12200
C681        C  0.23827614  0.73451541  0.33880447     0.18500
C682        C  0.23310384  0.73520060  0.32315637    -0.10600
C683        C  0.23814777  0.74740943  0.31332704    -0.11400
C684        C  0.24837895  0.75896634  0.31911698     0.20100
C685        C  0.25352388  0.75828722  0.33476951    -0.13500
C686        C  0.24848377  0.74608773  0.34459143    -0.11700
C687        C  0.25357306  0.77155732  0.30906387     0.01100
C688        C  0.25795957  0.78228835  0.30089477    -0.31800
C689        C  0.23302261  0.72204869  0.34898008     0.02400
C690        C  0.22858781  0.71186082  0.35779350    -0.33400
H691        H  0.22518417  0.72633587  0.31858036     0.13500
H692        H  0.23407589  0.74784353  0.30124913     0.13300
H693        H  0.26140805  0.76717738  0.33936899     0.13200
H694        H  0.25252304  0.74568781  0.35668495     0.12200
C695        C  0.17662869  0.89152908  0.03659256     0.18500
C696        C  0.17362473  0.88070488  0.02451390    -0.10600
C697        C  0.17745395  0.88441753  0.00892239    -0.11400
C698        C  0.18430978  0.89897666  0.00532856     0.20100
C699        C  0.18740361  0.90976394  0.01741998    -0.13500
C700        C  0.18357394  0.90605071  0.03301353    -0.11700
C701        C  0.18800351  0.90291828  0.98924274     0.01100
C702        C  0.19097784  0.90636315  0.97578330    -0.31800
C703        C  0.17226308  0.88786690  0.05257433     0.02400
C704        C  0.16821049  0.88484571  0.06585200    -0.33400
H705        H  0.16823428  0.86945623  0.02713316     0.13500
H706        H  0.17499672  0.87599133  0.99968029     0.13300
H707        H  0.19268810  0.92105854  0.01478469     0.13200
H708        H  0.18592515  0.91452177  0.04224147     0.12200
C709        C  0.23120259  0.82697418  0.23377779     0.18500
C710        C  0.22335971  0.81583599  0.22449045    -0.10600
C711        C  0.21351344  0.82076127  0.21225194    -0.11400
C712        C  0.21147258  0.83684443  0.20925655     0.20100
C713        C  0.21931326  0.84797976  0.21854743    -0.13500
C714        C  0.22915728  0.84305516  0.23078341    -0.11700
C715        C  0.20121302  0.84194392  0.19678764     0.01100
C716        C  0.19244805  0.84638636  0.18655811    -0.31800
C717        C  0.24122752  0.82190620  0.24644765     0.02400
C718        C  0.24944120  0.81763348  0.25719348    -0.33400
H719        H  0.22483025  0.80337666  0.22672914     0.13500
H720        H  0.20747640  0.81205352  0.20516625     0.13300
H721        H  0.21778649  0.86044236  0.21635734     0.13200
H722        H  0.23513773  0.85176835  0.23791732     0.12200
C723        C  0.31743886  0.84372379  0.30072745     0.18500
C724        C  0.32228359  0.85602874  0.29087831    -0.10600
C725        C  0.33447628  0.86602625  0.29556750    -0.11400
C726        C  0.34187569  0.86376345  0.31012807     0.20100
C727        C  0.33708706  0.85141080  0.31995117    -0.13500
C728        C  0.32488767  0.84140820  0.31525954    -0.11700
C729        C  0.35416996  0.87428545  0.31508883     0.01100
C730        C  0.36424721  0.88332735  0.31929865    -0.31800
C731        C  0.30465535  0.83368035  0.29601187     0.02400
C732        C  0.29371791  0.82560651  0.29198035    -0.33400
H733        H  0.31658407  0.85794317  0.27963908     0.13500
H734        H  0.33806334  0.87555637  0.28789984     0.13300
H735        H  0.34270794  0.84957840  0.33124531     0.13200
H736        H  0.32121130  0.83195091  0.32297934     0.12200
C737        C  0.04290060  0.69532584  0.66115232     0.18500
C738        C  0.03812328  0.69376555  0.67686655    -0.10600
C739        C  0.02254532  0.68978723  0.68039054    -0.11400
C740        C  0.01169798  0.68735590  0.66821318     0.20100
C741        C  0.01645493  0.68901901  0.65250495    -0.13500
C742        C  0.03202683  0.69299574  0.64898224    -0.11700
C743        C  0.99580871  0.68277070  0.67181125     0.01100
C744        C  0.98260909  0.67851098  0.67475587    -0.31800
C745        C  0.05897152  0.69915053  0.65747947     0.02400
C746        C  0.07240377  0.70222183  0.65413728    -0.33400
H747        H  0.04643910  0.69553189  0.68635954     0.13500
H748        H  0.01899480  0.68849674  0.69257084     0.13300
H749        H  0.00817157  0.68713157  0.64300296     0.13200
H750        H  0.03560514  0.69416372  0.63679517     0.12200
C751        C  0.83893215  0.71972445  0.72287341     0.18500
C752        C  0.84079530  0.73610689  0.72280245    -0.10600
C753        C  0.82841593  0.74583543  0.72764026    -0.11400
C754        C  0.81413604  0.73921446  0.73256363     0.20100
C755        C  0.81227015  0.72283791  0.73258785    -0.13500
C756        C  0.82463864  0.71311777  0.72775345    -0.11700
C757        C  0.80138465  0.74918084  0.73756530     0.01100
C758        C  0.79056002  0.75737237  0.74169583    -0.31800
C759        C  0.85162313  0.70966087  0.71792105     0.02400
C760        C  0.86199164  0.70093380  0.71372458    -0.33400
H761        H  0.85178533  0.74133761  0.71902707     0.13500
H762        H  0.82997509  0.75848502  0.72755160     0.13300
H763        H  0.80127605  0.71759665  0.73634598     0.13200
H764        H  0.82306391  0.70046725  0.72782799     0.12200
C765        C  0.73726397  0.84982809  0.69454394     0.18500
C766        C  0.72683714  0.84332345  0.70554821    -0.10600
C767        C  0.73183599  0.83118831  0.71548775    -0.11400
C768        C  0.74728205  0.82550513  0.71446362     0.20100
C769        C  0.75772184  0.83203973  0.70349395    -0.13500
C770        C  0.75272404  0.84417461  0.69355464    -0.11700
C771        C  0.75232021  0.81279332  0.72445771     0.01100
C772        C  0.75636990  0.80191538  0.73261351    -0.31800
C773        C  0.73206085  0.86216422  0.68415980     0.02400
C774        C  0.72765921  0.87234785  0.67531030    -0.33400
H775        H  0.71485130  0.84758220  0.70639600     0.13500
H776        H  0.72365657  0.82619514  0.72389839     0.13300
H777        H  0.76967889  0.82770785  0.70257534     0.13200
H778        H  0.76087328  0.84909481  0.68507425     0.12200
C779        C  0.70925628  0.74832616  0.82510973     0.18500
C780        C  0.72561841  0.74870641  0.82707581    -0.10600
C781        C  0.73528805  0.75374025  0.81473069    -0.11400
C782        C  0.72862296  0.75840945  0.80038463     0.20100
C783        C  0.71225572  0.75811609  0.79845985    -0.13500
C784        C  0.70259212  0.75308483  0.81079708    -0.11700
C785        C  0.73855518  0.76329329  0.78756679     0.01100
C786        C  0.74671644  0.76722714  0.77664751    -0.31800
C787        C  0.69928983  0.74288391  0.83766665     0.02400
C788        C  0.69065469  0.73823145  0.84791184    -0.33400
H789        H  0.73088686  0.74504522  0.83809348     0.13500
H790        H  0.74792640  0.75391408  0.81633520     0.13300
H791        H  0.70698319  0.76169245  0.78741237     0.13200
H792        H  0.68995684  0.75282791  0.80915586     0.12200
C793        C  0.51230148  0.68488623  0.86614567     0.18500
C794        C  0.52327332  0.68830302  0.85430578    -0.10600
C795        C  0.53870472  0.69243096  0.85829181    -0.11400
C796        C  0.54323998  0.69316400  0.87413728     0.20100
C797        C  0.53224381  0.68984091  0.88598021    -0.13500
C798        C  0.51681327  0.68571349  0.88199493    -0.11700
C799        C  0.55921351  0.69707706  0.87822898     0.01100
C800        C  0.57264838  0.70010360  0.88165589    -0.31800
C801        C  0.49651187  0.68028310  0.86204126     0.02400
C802        C  0.48334298  0.67616564  0.85870729    -0.33400
H803        H  0.51992863  0.68768484  0.84201592     0.13500
H804        H  0.54710704  0.69495666  0.84903668     0.13300
H805        H  0.53561982  0.69035124  0.89826992     0.13200
H806        H  0.50844132  0.68308015  0.89124886     0.12200
C807        C  0.88905432  0.55394250  0.66813612     0.18500
C808        C  0.87369932  0.55020036  0.66345376    -0.10600
C809        C  0.86984070  0.53470639  0.65946979    -0.11400
C810        C  0.88132247  0.52289219  0.66015752     0.20100
C811        C  0.89666342  0.52662500  0.66489845    -0.13500
C812        C  0.90052221  0.54211920  0.66888172    -0.11700
C813        C  0.87744491  0.50701469  0.65573583     0.01100
C814        C  0.87435696  0.49377233  0.65170331    -0.31800
C815        C  0.89307659  0.56992335  0.67200681     0.02400
C816        C  0.89646056  0.58334598  0.67508156    -0.33400
H817        H  0.86474837  0.55925665  0.66281889     0.13500
H818        H  0.85795624  0.53195746  0.65578725     0.13300
H819        H  0.90564009  0.51758852  0.66543768     0.13200
H820        H  0.91243069  0.54488771  0.67246700     0.12200
C821        C  0.81761010  0.32532611  0.71392736     0.18500
C822        C  0.81613687  0.32404568  0.69755218    -0.10600
C823        C  0.82121674  0.33630246  0.68783212    -0.11400
C824        C  0.82779492  0.34988798  0.69444403     0.20100
C825        C  0.82926477  0.35118549  0.71082545    -0.13500
C826        C  0.82418002  0.33891591  0.72055567    -0.11700
C827        C  0.83309788  0.36241254  0.68437839     0.01100
C828        C  0.83752637  0.37265321  0.67563024    -0.31800
C829        C  0.81243073  0.31264890  0.72386363     0.02400
C830        C  0.80810262  0.30179739  0.73189387    -0.33400
H831        H  0.81108887  0.31358429  0.69231413     0.13500
H832        H  0.82004087  0.33517984  0.67517653     0.13300
H833        H  0.83434624  0.36163514  0.71604952     0.13200
H834        H  0.82538377  0.34001135  0.73320786     0.12200
C835        C  0.72327373  0.22159289  0.72203501     0.18500
C836        C  0.73033092  0.23188728  0.71124866    -0.10600
C837        C  0.74260323  0.24173827  0.71607886    -0.11400
C838        C  0.74785887  0.24132986  0.73171229     0.20100
C839        C  0.74069679  0.23114563  0.74252337    -0.13500
C840        C  0.72843272  0.22130075  0.73769633    -0.11700
C841        C  0.76085409  0.25102569  0.73658793     0.01100
C842        C  0.77199686  0.25878087  0.74069002    -0.31800
C843        C  0.71100050  0.21107693  0.71698833     0.02400
C844        C  0.70094238  0.20198578  0.71282507    -0.33400
H845        H  0.72644941  0.23219264  0.69910638     0.13500
H846        H  0.74807912  0.24954728  0.70761335     0.13300
H847        H  0.74468539  0.23071192  0.75462227     0.13200
H848        H  0.72307927  0.21337534  0.74612380     0.12200
C849        C  0.68385623  0.02255971  0.66084048     0.18500
C850        C  0.66809861  0.02737865  0.66147668    -0.10600
C851        C  0.66435688  0.04289437  0.66551102    -0.11400
C852        C  0.67635105  0.05367195  0.66893341     0.20100
C853        C  0.69210912  0.04883480  0.66839254    -0.13500
C854        C  0.69585310  0.03331083  0.66435595    -0.11700
C855        C  0.67246141  0.06969693  0.67284873     0.01100
C856        C  0.66895219  0.08308690  0.67598796    -0.31800
C857        C  0.68770146  0.00670774  0.65622499     0.02400
C858        C  0.69078619  0.99352280  0.65196076    -0.33400
H859        H  0.65872938  0.01918383  0.65875414     0.13500
H860        H  0.65213766  0.04650322  0.66588247     0.13300
H861        H  0.70147769  0.05706457  0.67100593     0.13200
H862        H  0.70807379  0.02972744  0.66387282     0.12200
C863        C  0.85481771  0.24737577  0.82327360     0.18500
C864        C  0.85907371  0.24420590  0.80764934    -0.10600
C865        C  0.84925935  0.24891102  0.79530302    -0.11400
C866        C  0.83514293  0.25680158  0.79852854     0.20100
C867        C  0.83089412  0.25999083  0.81415033    -0.13500
C868        C  0.84071143  0.25528415  0.82650145    -0.11700
C869        C  0.82507926  0.26168297  0.78581252     0.01100
C870        C  0.81683173  0.26587225  0.77505751    -0.31800
C871        C  0.86492684  0.24249584  0.83595506     0.02400
C872        C  0.87359893  0.23828781  0.84636337    -0.33400
H873        H  0.86995706  0.23810616  0.80502137     0.13500
H874        H  0.85266940  0.24640628  0.78326915     0.13300
H875        H  0.82002001  0.26610354  0.81677304     0.13200
H876        H  0.83731396  0.25779977  0.83853014     0.12200
C877        C  0.68375716  0.89893934  0.52755204     0.18500
C878        C  0.68044611  0.88329969  0.52348183    -0.10600
C879        C  0.67650573  0.87944893  0.50794297    -0.11400
C880        C  0.67585947  0.89121609  0.49639352     0.20100
C881        C  0.67925600  0.90683318  0.50045378    -0.13500
C882        C  0.68319297  0.91068152  0.51598249    -0.11700
C883        C  0.67144678  0.88735602  0.48046017     0.01100
C884        C  0.66746510  0.88435712  0.46715060    -0.31800
C885        C  0.68754749  0.90299250  0.54359730     0.02400
C886        C  0.69057888  0.90652768  0.55702537    -0.33400
H887        H  0.68083120  0.87411970  0.53231671     0.13500
H888        H  0.67388210  0.86733898  0.50495989     0.13300
H889        H  0.67877345  0.91603371  0.49164753     0.13200
H890        H  0.68571416  0.92280829  0.51897932     0.12200
C891        C  0.51443664  0.90044915  0.36157802     0.18500
C892        C  0.51747498  0.89190176  0.37535551    -0.10600
C893        C  0.53293348  0.88785786  0.37933299    -0.11400
C894        C  0.54544464  0.89234394  0.36955915     0.20100
C895        C  0.54239595  0.90077601  0.35570624    -0.13500
C896        C  0.52693106  0.90482158  0.35172787    -0.11700
C897        C  0.56139662  0.88854139  0.37390267     0.01100
C898        C  0.57473584  0.88550595  0.37772155    -0.31800
C899        C  0.49855918  0.90501166  0.35774819     0.02400
C900        C  0.48528004  0.90909157  0.35481265    -0.33400
H901        H  0.50791961  0.88847520  0.38307349     0.13500
H902        H  0.53513812  0.88135026  0.39007084     0.13300
H903        H  0.55196505  0.90431864  0.34806095     0.13200
H904        H  0.52473295  0.91144789  0.34106086     0.12200
C905        C  0.73167290  0.82613894  0.29970370     0.18500
C906        C  0.72605659  0.81533720  0.31082530    -0.10600
C907        C  0.71621073  0.82041257  0.32300914    -0.11400
C908        C  0.71195239  0.83630075  0.32410700     0.20100
C909        C  0.71760695  0.84710710  0.31300961    -0.13500
C910        C  0.72745046  0.84203320  0.30083055    -0.11700
C911        C  0.70160927  0.84147741  0.33646856     0.01100
C912        C  0.69272548  0.84585103  0.34662439    -0.31800
C913        C  0.74162280  0.82091986  0.28704294     0.02400
C914        C  0.74981248  0.81675432  0.27623804    -0.33400
H915        H  0.72923364  0.80302188  0.31004223     0.13500
H916        H  0.71187469  0.81196076  0.33151463     0.13300
H917        H  0.71435847  0.85940997  0.31373698     0.13200
H918        H  0.73171493  0.85047517  0.29227153     0.12200
C919        C  0.74999592  0.75870302  0.21393564     0.18500
C920        C  0.75276487  0.75927249  0.19768668    -0.10600
C921        C  0.74787818  0.74686650  0.18806167    -0.11400
C922        C  0.74021005  0.73385090  0.19465351     0.20100
C923        C  0.73742784  0.73327739  0.21090191    -0.13500
C924        C  0.74231724  0.74569053  0.22053311    -0.11700
C925        C  0.73506292  0.72119899  0.18469385     0.01100
C926        C  0.73063857  0.71090354  0.17602609    -0.31800
C927        C  0.75496966  0.77150676  0.22379790     0.02400
C928        C  0.75907505  0.78235611  0.23193728    -0.33400
H929        H  0.75866727  0.76929322  0.19247407     0.13500
H930        H  0.75004517  0.74743217  0.17550251     0.13300
H931        H  0.73147224  0.72328091  0.21609811     0.13200
H932        H  0.74010009  0.74515755  0.23308183     0.12200
C933        C  0.68349240  0.68664029  0.02916222     0.18500
C934        C  0.69275383  0.68113491  0.01666521    -0.10600
C935        C  0.68870074  0.68481929  0.00113534    -0.11400
C936        C  0.67537635  0.69402695  0.99805176     0.20100
C937        C  0.66617249  0.69960683  0.01055420    -0.13500
C938        C  0.67022414  0.69592420  0.02607811    -0.11700
C939        C  0.67097480  0.69753857  0.98208118     0.01100
C940        C  0.66693721  0.70034860  0.96877523    -0.31800
C941        C  0.68743196  0.68254905  0.04511681     0.02400
C942        C  0.69055506  0.67894746  0.05847929    -0.33400
H943        H  0.70302403  0.67393132  0.01892068     0.13500
H944        H  0.69588131  0.68042370  0.99155282     0.13300
H945        H  0.65583435  0.70670974  0.00829778     0.13200
H946        H  0.66297324  0.70022217  0.03564984     0.12200
C947        C  0.04510484  0.89270123  0.16154471     0.18500
C948        C  0.03708596  0.88457835  0.17346613    -0.10600
C949        C  0.02155231  0.88861427  0.17722594    -0.11400
C950        C  0.01396732  0.90079247  0.16908156     0.20100
C951        C  0.02198858  0.90889277  0.15715874    -0.13500
C952        C  0.03750517  0.90486161  0.15340234    -0.11700
C953        C  0.99803849  0.90511771  0.17301408     0.01100
C954        C  0.98478441  0.90914530  0.17616105    -0.31800
C955        C  0.06110915  0.88862767  0.15764076     0.02400
C956        C  0.07451269  0.88548215  0.15413440    -0.33400
H957        H  0.04283629  0.87515995  0.17985089     0.13500
H958        H  0.01548426  0.88228089  0.18647839     0.13300
H959        H  0.01626156  0.91834183  0.15079330     0.13200
H960        H  0.04357455  0.91122871  0.14417575     0.12200
C961        C  0.81746615  0.84446456  0.23273202     0.18500
C962        C  0.82475834  0.85451018  0.24358303    -0.10600
C963        C  0.83684694  0.86454478  0.23867471    -0.11400
C964        C  0.84168308  0.86456868  0.22289770     0.20100
C965        C  0.83442849  0.85447829  0.21206467    -0.13500
C966        C  0.82234372  0.84444684  0.21697252    -0.11700
C967        C  0.85391937  0.87508539  0.21776872     0.01100
C968        C  0.86398662  0.88404939  0.21335864    -0.31800
C969        C  0.80481184  0.83437874  0.23769050     0.02400
C970        C  0.79398926  0.82614278  0.24169925    -0.33400
H971        H  0.82105120  0.85464034  0.25578654     0.13500
H972        H  0.84235662  0.87231871  0.24713909     0.13300
H973        H  0.83805580  0.85442386  0.19983983     0.13200
H974        H  0.81675940  0.83675168  0.20848214     0.12200
C975        C  0.67661879  0.53066513  0.16892585     0.18500
C976        C  0.69189542  0.53639786  0.17130820    -0.10600
C977        C  0.69559844  0.55193581  0.16729615    -0.11400
C978        C  0.68403812  0.56179998  0.16088766     0.20100
C979        C  0.66873657  0.55610312  0.15863787    -0.13500
C980        C  0.66503629  0.54057827  0.16264717    -0.11700
C981        C  0.68792148  0.57763812  0.15629678     0.01100
C982        C  0.69105504  0.59081987  0.15208563    -0.31800
C983        C  0.67285431  0.51455861  0.17261354     0.02400
C984        C  0.66945786  0.50105429  0.17535645    -0.33400
H985        H  0.70095179  0.52883484  0.17614167     0.13500
H986        H  0.70746972  0.55620930  0.16906691     0.13300
H987        H  0.65971149  0.56361559  0.15367301     0.13200
H988        H  0.65319857  0.53627336  0.16074047     0.12200
C989        C  0.72397452  0.36329241  0.22327228     0.18500
C990        C  0.72953837  0.36437568  0.23876091    -0.10600
C991        C  0.74184074  0.35467277  0.24379355    -0.11400
C992        C  0.74862370  0.34385562  0.23335412     0.20100
C993        C  0.74295094  0.34265641  0.21791433    -0.13500
C994        C  0.73064824  0.35235748  0.21288148    -0.11700
C995        C  0.76160053  0.33422409  0.23837411     0.01100
C996        C  0.77263593  0.32628122  0.24239013    -0.31800
C997        C  0.71170604  0.37366079  0.21793345     0.02400
C998        C  0.70169127  0.38259000  0.21334330    -0.33400
H999        H  0.72447572  0.37280146  0.24687915     0.13500
H1000       H  0.74614631  0.35569867  0.25574837     0.13300
H1001       H  0.74812269  0.33433690  0.20974659     0.13200
H1002       H  0.72644806  0.35143907  0.20087969     0.12200
C1003       C  0.88786561  0.03125252  0.16726007     0.18500
C1004       C  0.89899471  0.04338599  0.16797755    -0.10600
C1005       C  0.89479238  0.05869711  0.16366279    -0.11400
C1006       C  0.87944181  0.06194571  0.15861320     0.20100
C1007       C  0.86828443  0.04982759  0.15795200    -0.13500
C1008       C  0.87248893  0.03450648  0.16227018    -0.11700
C1009       C  0.87524414  0.07766387  0.15392819     0.01100
C1010       C  0.87201160  0.09084930  0.14982634    -0.31800
C1011       C  0.89228727  0.01545916  0.17147348     0.02400
C1012       C  0.89609261  0.00222004  0.17485584    -0.33400
H1013       H  0.91091666  0.04099822  0.17180251     0.13500
H1014       H  0.90351291  0.06797308  0.16419697     0.13300
H1015       H  0.85638758  0.05220697  0.15404428     0.13200
H1016       H  0.86379710  0.02521028  0.16165771     0.12200
C1017       C  0.81491119  0.25801040  0.21472609     0.18500
C1018       C  0.82886799  0.24971403  0.21757219    -0.10600
C1019       C  0.83331064  0.23739421  0.20760094    -0.11400
C1020       C  0.82381177  0.23332859  0.19475334     0.20100
C1021       C  0.80980340  0.24156229  0.19196531    -0.13500
C1022       C  0.80536111  0.25388136  0.20193732    -0.11700
C1023       C  0.82861074  0.22095217  0.18424804     0.01100
C1024       C  0.83284366  0.21084402  0.17524355    -0.31800
C1025       C  0.81052995  0.27092891  0.22474229     0.02400
C1026       C  0.80688985  0.28194406  0.23289544    -0.33400
H1027       H  0.83634510  0.25283321  0.22741035     0.13500
H1028       H  0.84418242  0.23112483  0.20983614     0.13300
H1029       H  0.80239710  0.23853650  0.18204555     0.13200
H1030       H  0.79455728  0.26024490  0.19962037     0.12200
C1031       C  0.87931818  0.18654170  0.02752434     0.18500
C1032       C  0.88382193  0.17467911  0.01698874    -0.10600
C1033       C  0.88825296  0.17853214  0.00160349    -0.11400
C1034       C  0.88819952  0.19426667  0.99667906     0.20100
C1035       C  0.88363781  0.20613112  0.00719647    -0.13500
C1036       C  0.87920430  0.20227502  0.02259094    -0.11700
C1037       C  0.89298897  0.19820800  0.98090129     0.01100
C1038       C  0.89722967  0.20127100  0.96770041    -0.31800
C1039       C  0.87498704  0.18256539  0.04341829     0.02400
C1040       C  0.87156319  0.17906054  0.05674011    -0.33400
H1041       H  0.88396541  0.16247866  0.02068240     0.13500
H1042       H  0.89177114  0.16926966  0.99358021     0.13300
H1043       H  0.88356661  0.21833244  0.00352181     0.13200
H1044       H  0.87575608  0.21153732  0.03064168     0.12200
C1045       C  0.88869980  0.39232595  0.49653660     0.18500
C1046       C  0.88484574  0.38038004  0.50723108    -0.10600
C1047       C  0.88112751  0.38414202  0.52282960    -0.11400
C1048       C  0.88125564  0.39986360  0.52779206     0.20100
C1049       C  0.88500621  0.41181894  0.51707222    -0.13500
C1050       C  0.88872398  0.40805778  0.50147524    -0.11700
C1051       C  0.87772095  0.40370731  0.54390653     0.01100
C1052       C  0.87487547  0.40695966  0.55742296    -0.31800
C1053       C  0.89300376  0.38843100  0.48061809     0.02400
C1054       C  0.89706262  0.38529026  0.46738449    -0.33400
H1055       H  0.88482668  0.36817847  0.50354595     0.13500
H1056       H  0.87825336  0.37481274  0.53102311     0.13300
H1057       H  0.88514802  0.42401306  0.52079062     0.13200
H1058       H  0.89172097  0.41737935  0.49331448     0.12200
C1059       C  0.83510526  0.32550534  0.30038459     0.18500
C1060       C  0.82881741  0.33307533  0.31362586    -0.10600
C1061       C  0.83877731  0.33824436  0.32566457    -0.11400
C1062       C  0.85504831  0.33586035  0.32449434     0.20100
C1063       C  0.86132323  0.32823184  0.31128502    -0.13500
C1064       C  0.85136847  0.32306424  0.29925319    -0.11700
C1065       C  0.86532783  0.34138874  0.33673760     0.01100
C1066       C  0.87407878  0.34612643  0.34682980    -0.31800
C1067       C  0.82494510  0.32049307  0.28781940     0.02400
C1068       C  0.81669714  0.31649512  0.27700477    -0.33400
H1069       H  0.81626530  0.33504762  0.31459640     0.13500
H1070       H  0.83381518  0.34414941  0.33582388     0.13300
H1071       H  0.87388746  0.32635122  0.31026024     0.13200
H1072       H  0.85634845  0.31725173  0.28904646     0.12200
C1073       C  0.55127379  0.18480873  0.66867954     0.18500
C1074       C  0.54278808  0.19517712  0.67831556    -0.10600
C1075       C  0.52737000  0.19941319  0.67433495    -0.11400
C1076       C  0.52037205  0.19330339  0.66069821     0.20100
C1077       C  0.52887578  0.18296222  0.65106077    -0.13500
C1078       C  0.54427859  0.17873012  0.65503735    -0.11700
C1079       C  0.50449223  0.19759150  0.65656015     0.01100
C1080       C  0.49121056  0.20099127  0.65285878    -0.31800
C1081       C  0.56709021  0.18028665  0.67280026     0.02400
C1082       C  0.58030103  0.17619918  0.67602075    -0.33400
H1083       H  0.54806588  0.19994577  0.68889151     0.13500
H1084       H  0.52091581  0.20741673  0.68187894     0.13300
H1085       H  0.52359856  0.17816424  0.64049711     0.13200
H1086       H  0.55071267  0.17070367  0.64750253     0.12200
C1087       C  0.35405483  0.24972325  0.70720870     0.18500
C1088       C  0.34338187  0.23902732  0.71380847    -0.10600
C1089       C  0.33335392  0.24381381  0.72596092    -0.11400
C1090       C  0.33396801  0.25931107  0.73154903     0.20100
C1091       C  0.34462935  0.27000641  0.72494089    -0.13500
C1092       C  0.35465557  0.26522176  0.71279173    -0.11700
C1093       C  0.32381226  0.26420133  0.74417714     0.01100
C1094       C  0.31553589  0.26831123  0.75493660    -0.31800
C1095       C  0.36448863  0.24476132  0.69483033     0.02400
C1096       C  0.37337779  0.24052653  0.68461713    -0.33400
H1097       H  0.34284867  0.22701040  0.70959753     0.13500
H1098       H  0.32517561  0.23544372  0.73101952     0.13300
H1099       H  0.34521926  0.28200238  0.72920541     0.13200
H1100       H  0.36288598  0.27357094  0.70779251     0.12200
C1101       C  0.02119112  0.19518465  0.87279054     0.18500
C1102       C  0.02579349  0.19470856  0.85694518    -0.10600
C1103       C  0.04120254  0.19047492  0.85293305    -0.11400
C1104       C  0.05207208  0.18669970  0.86475164     0.20100
C1105       C  0.04748423  0.18726224  0.88059158    -0.13500
C1106       C  0.03208745  0.19149269  0.88460039    -0.11700
C1107       C  0.06784308  0.18199869  0.86067253     0.01100
C1108       C  0.08103056  0.17776550  0.85754994    -0.31800
C1109       C  0.00525989  0.19922476  0.87694831     0.02400
C1110       C  0.99188972  0.20236127  0.88054780    -0.33400
H1111       H  0.01746387  0.19752053  0.84771272     0.13500
H1112       H  0.04460801  0.19005962  0.84064873     0.13300
H1113       H  0.05577537  0.18434710  0.88982515     0.13200
H1114       H  0.02866057  0.19180062  0.89688157     0.12200
C1115       C  0.24838117  0.24042750  0.79881240     0.18500
C1116       C  0.23306127  0.24628593  0.80048952    -0.10600
C1117       C  0.22090974  0.23630400  0.80534327    -0.11400
C1118       C  0.22404570  0.22043534  0.80852710     0.20100
C1119       C  0.23936400  0.21458128  0.80683532    -0.13500
C1120       C  0.25150790  0.22455709  0.80198366    -0.11700
C1121       C  0.21160002  0.21016884  0.81362001     0.01100
C1122       C  0.20138573  0.20139191  0.81804523    -0.31800
C1123       C  0.26091435  0.25066746  0.79388969     0.02400
C1124       C  0.27162837  0.25900228  0.78980968    -0.33400
H1125       H  0.23052535  0.25854095  0.79807090     0.13500
H1126       H  0.20911148  0.24094550  0.80663220     0.13300
H1127       H  0.24191442  0.20233015  0.80928542     0.13200
H1128       H  0.26331559  0.21991480  0.80072686     0.12200
C1129       C  0.17692974  0.05474993  0.86555047     0.18500
C1130       C  0.17459559  0.04961799  0.88105172    -0.10600
C1131       C  0.17836656  0.03417397  0.88528397    -0.11400
C1132       C  0.18449514  0.02378318  0.87403768     0.20100
C1133       C  0.18687952  0.02891732  0.85853768    -0.13500
C1134       C  0.18310469  0.04437720  0.85430085    -0.11700
C1135       C  0.18825447  0.00786776  0.87843530     0.01100
C1136       C  0.19124748  0.99459232  0.88243647    -0.31800
C1137       C  0.17284289  0.07060758  0.86122722     0.02400
C1138       C  0.16919708  0.08391848  0.85794286    -0.33400
H1139       H  0.16982539  0.05753118  0.88983763     0.13500
H1140       H  0.17647405  0.03032947  0.89729741     0.13300
H1141       H  0.19161024  0.02097859  0.84974880     0.13200
H1142       H  0.18495193  0.04822090  0.84227756     0.12200
C1143       C  0.38707705  0.55364290  0.86570277     0.18500
C1144       C  0.37131946  0.54961963  0.86845943    -0.10600
C1145       C  0.36733050  0.53416360  0.87252213    -0.11400
C1146       C  0.37908257  0.52266602  0.87384513     0.20100
C1147       C  0.39481687  0.52666981  0.87096405    -0.13500
C1148       C  0.39880241  0.54211462  0.86690488    -0.11700
C1149       C  0.37509730  0.50684092  0.87843199     0.01100
C1150       C  0.37212656  0.49357426  0.88251512    -0.31800
C1151       C  0.39126163  0.56962260  0.86190335     0.02400
C1152       C  0.39488075  0.58302430  0.85894516    -0.33400
H1153       H  0.36215727  0.55843385  0.86757423     0.13500
H1154       H  0.35512696  0.53121015  0.87473395     0.13300
H1155       H  0.40399763  0.51789146  0.87196318     0.13200
H1156       H  0.41102249  0.54508677  0.86481166     0.12200
C1157       C  0.32495414  0.35059609  0.83766209     0.18500
C1158       C  0.32008823  0.33613934  0.84390710    -0.10600
C1159       C  0.31526929  0.32403963  0.83386283    -0.11400
C1160       C  0.31529465  0.32634574  0.81753253     0.20100
C1161       C  0.32014017  0.34080893  0.81127408    -0.13500
C1162       C  0.32496326  0.35292018  0.82132751    -0.11700
C1163       C  0.31040010  0.31382868  0.80725642     0.01100
C1164       C  0.30631245  0.30308419  0.79896272    -0.31800
C1165       C  0.33007495  0.36294828  0.84803257     0.02400
C1166       C  0.33450183  0.37303802  0.85695513    -0.33400
H1167       H  0.32005795  0.33421605  0.85651641     0.13500
H1168       H  0.31155571  0.31289766  0.83881593     0.13300
H1169       H  0.32021324  0.34270364  0.79866387     0.13200
H1170       H  0.32872370  0.36404623  0.81638299     0.12200
C1171       C  0.05246606  0.39961515  0.36637964     0.18500
C1172       C  0.04026553  0.40404742  0.35621702    -0.10600
C1173       C  0.02470633  0.40005233  0.35978662    -0.11400
C1174       C  0.02128283  0.39160568  0.37353251     0.20100
C1175       C  0.03349278  0.38708281  0.38364965    -0.13500
C1176       C  0.04905790  0.39107940  0.38007803    -0.11700
C1177       C  0.00523102  0.38782274  0.37736523     0.01100
C1178       C  0.99173554  0.38493124  0.38063242    -0.31800
C1179       C  0.06841506  0.40410613  0.36290131     0.02400
C1180       C  0.08169098  0.40819965  0.36004880    -0.33400
H1181       H  0.04276715  0.41067054  0.34561237     0.13500
H1182       H  0.01535637  0.40362613  0.35189968     0.13300
H1183       H  0.03097243  0.38057109  0.39431868     0.13200
H1184       H  0.05839968  0.38761774  0.38802900     0.12200
C1185       C  0.18503349  0.56185352  0.37611479     0.18500
C1186       C  0.17108409  0.55827907  0.36808827    -0.10600
C1187       C  0.16749840  0.54266081  0.36431969    -0.11400
C1188       C  0.17784289  0.53053776  0.36855903     0.20100
C1189       C  0.19184011  0.53411850  0.37650260    -0.13500
C1190       C  0.19542645  0.54974104  0.38027239    -0.11700
C1191       C  0.17399054  0.51444326  0.36490551     0.01100
C1192       C  0.17051304  0.50102078  0.36187896    -0.31800
C1193       C  0.18852980  0.57788810  0.38034691     0.02400
C1194       C  0.19131160  0.59126489  0.38418921    -0.33400
H1195       H  0.16295029  0.56753939  0.36483535     0.13500
H1196       H  0.15664378  0.54003301  0.35818673     0.13300
H1197       H  0.19992074  0.52484616  0.37984615     0.13200
H1198       H  0.20622955  0.55236075  0.38649813     0.12200
C1199       C  0.24875277  0.34466606  0.30080793     0.18500
C1200       C  0.24335646  0.34339341  0.31634925    -0.10600
C1201       C  0.23109708  0.35302338  0.32164319    -0.11400
C1202       C  0.22419529  0.36395446  0.31140666     0.20100
C1203       C  0.22952971  0.36515317  0.29584253    -0.13500
C1204       C  0.24178442  0.35552762  0.29055125    -0.11700
C1205       C  0.21187331  0.37416963  0.31691886     0.01100
C1206       C  0.20179146  0.38306602  0.32143031    -0.31800
C1207       C  0.26157746  0.33500304  0.29545477     0.02400
C1208       C  0.27246570  0.32702681  0.29110356    -0.33400
H1209       H  0.24868046  0.33504097  0.32437899     0.13500
H1210       H  0.22707992  0.35202369  0.33370650     0.13300
H1211       H  0.22429339  0.37358549  0.28784595     0.13200
H1212       H  0.24587924  0.35661589  0.27852511     0.12200
C1213       C  0.38117121  0.06230355  0.37234776     0.18500
C1214       C  0.39673651  0.05701775  0.37361109    -0.10600
C1215       C  0.40056498  0.04154460  0.36951445    -0.11400
C1216       C  0.38884721  0.03127896  0.36413173     0.20100
C1217       C  0.37329208  0.03658500  0.36277299    -0.13500
C1218       C  0.36946034  0.05206949  0.36687227    -0.11700
C1219       C  0.39278509  0.01527809  0.36019852     0.01100
C1220       C  0.39628705  0.00187668  0.35712076    -0.31800
C1221       C  0.37721552  0.07812812  0.37693320     0.02400
C1222       C  0.37411197  0.09133940  0.38108362    -0.33400
H1223       H  0.40587944  0.06481970  0.37784530     0.13500
H1224       H  0.41262280  0.03756702  0.37062032     0.13300
H1225       H  0.36413707  0.02874576  0.35863373     0.13200
H1226       H  0.35738915  0.05602399  0.36586482     0.12200
C1227       C  0.32636811  0.23433253  0.33680203     0.18500
C1228       C  0.33586496  0.23942315  0.32431352    -0.10600
C1229       C  0.33086160  0.25177931  0.31466378    -0.11400
C1230       C  0.31634796  0.25908299  0.31747074     0.20100
C1231       C  0.30683733  0.25396908  0.32993834    -0.13500
C1232       C  0.31183986  0.24161450  0.33958689    -0.11700
C1233       C  0.31129913  0.27192741  0.30768108     0.01100
C1234       C  0.30716817  0.28284353  0.29963387    -0.31800
C1235       C  0.33165178  0.22185685  0.34693845     0.02400
C1236       C  0.33617389  0.21169187  0.35572558    -0.33400
H1237       H  0.34713452  0.23390461  0.32209307     0.13500
H1238       H  0.33831683  0.25567054  0.30507528     0.13300
H1239       H  0.29561391  0.25956110  0.33222772     0.13200
H1240       H  0.30443223  0.23779636  0.34924388     0.12200
C1241       C  0.38993673  0.19520604  0.53469670     0.18500
C1242       C  0.38438668  0.20694976  0.52452733    -0.10600
C1243       C  0.38035416  0.20321404  0.50898918    -0.11400
C1244       C  0.38185415  0.18771287  0.50355183     0.20100
C1245       C  0.38733514  0.17596529  0.51374431    -0.13500
C1246       C  0.39136529  0.17969841  0.52927143    -0.11700
C1247       C  0.37791736  0.18383785  0.48751341     0.01100
C1248       C  0.37482044  0.18029597  0.47411179    -0.31800
C1249       C  0.39439399  0.19908382  0.55060097     0.02400
C1250       C  0.39841162  0.20223993  0.56385603    -0.33400
H1251       H  0.38325048  0.21898166  0.52858158     0.13500
H1252       H  0.37613900  0.21239456  0.50122058     0.13300
H1253       H  0.38855082  0.16394606  0.50967284     0.13200
H1254       H  0.39565718  0.17052662  0.53700916     0.12200
C1255       C  0.39135870  0.38775319  0.03453493     0.18500
C1256       C  0.40082077  0.39796999  0.02570743    -0.10600
C1257       C  0.39650240  0.40203409  0.01035708    -0.11400
C1258       C  0.38270397  0.39590154  0.00376004     0.20100
C1259       C  0.37326530  0.38562342  0.01255335    -0.13500
C1260       C  0.37758739  0.38155540  0.02791994    -0.11700
C1261       C  0.37826781  0.40022171  0.98799917     0.01100
C1262       C  0.37484842  0.40402229  0.97476645    -0.31800
C1263       C  0.39575335  0.38377657  0.05040221     0.02400
C1264       C  0.39967934  0.38073933  0.06369468    -0.33400
H1265       H  0.41148862  0.40282340  0.03070348     0.13500
H1266       H  0.40388792  0.40997698  0.00365681     0.13300
H1267       H  0.36257857  0.38080452  0.00755659     0.13200
H1268       H  0.37018956  0.37364180  0.03464360     0.12200
C1269       C  0.33404885  0.32663295  0.23187828     0.18500
C1270       C  0.33702023  0.34263264  0.22925503    -0.10600
C1271       C  0.34681769  0.34726749  0.21686492    -0.11400
C1272       C  0.35367655  0.33592051  0.20705717     0.20100
C1273       C  0.35065911  0.31992365  0.20964337    -0.13500
C1274       C  0.34086100  0.31528825  0.22203465    -0.11700
C1275       C  0.36407039  0.34067719  0.19457293     0.01100
C1276       C  0.37309135  0.34472767  0.18440691    -0.31800
C1277       C  0.32419168  0.32185882  0.24478663     0.02400
C1278       C  0.31612846  0.31787782  0.25575605    -0.33400
H1279       H  0.33183838  0.35149113  0.23681721     0.13500
H1280       H  0.34911569  0.35966526  0.21499179     0.13300
H1281       H  0.35594316  0.31105844  0.20215577     0.13200
H1282       H  0.33866251  0.30288229  0.22398665     0.12200
C1283       C  0.55236412  0.39850858  0.16746905     0.18500
C1284       C  0.54530914  0.38560572  0.17494086    -0.10600
C1285       C  0.52986223  0.38130297  0.17116825    -0.11400
C1286       C  0.52139280  0.38987782  0.15990472     0.20100
C1287       C  0.52846015  0.40276651  0.15242177    -0.13500
C1288       C  0.54389956  0.40706694  0.15619289    -0.11700
C1289       C  0.50549292  0.38545077  0.15598778     0.01100
C1290       C  0.49219589  0.38185738  0.15253040    -0.31800
C1291       C  0.56821215  0.40306899  0.17143033     0.02400
C1292       C  0.58140874  0.40720916  0.17464357    -0.33400
H1293       H  0.55172443  0.37890626  0.18367944     0.13500
H1294       H  0.52453263  0.37131758  0.17702548     0.13300
H1295       H  0.52204347  0.40948139  0.14369444     0.13200
H1296       H  0.54921963  0.41706639  0.15034488     0.12200
loop_ 
_geom_bond_atom_site_label_1 
_geom_bond_atom_site_label_2 
_geom_bond_distance 
_geom_bond_site_symmetry_2 
_ccdc_geom_bond_type 
N1            N2   1.323       .  A
N1            C5   1.345       .  A
N1           Cu9   2.074       .  S
N2            C3   1.347       .  A
N2           Cu8   2.076       .  S
C3            C4   1.381       .  A
C3            H6   1.082       .  S
C4            C5   1.380       .  A
C4         C1290   1.439       .  S
C5            H7   1.082       .  S
Cu8          N11   2.076       .  S
Cu9          N19   2.074       .  S
Cu10         N12   2.071       .  S
Cu10         N18   2.070       .  S
N11          N12   1.324       .  A
N11          C15   1.345       .  A
N12          C13   1.345       .  A
C13          C14   1.378       .  A
C13          H16   1.081       .  S
C14          C15   1.379       .  A
C14        C1276   1.435       .  S
C15          H17   1.081       .  S
N18          N19   1.323       .  A
N18          C22   1.346       .  A
N19          C20   1.345       .  A
C20          C21   1.379       .  A
C20          H23   1.081       .  S
C21          C22   1.379       .  A
C21        C1264   1.436       .  S
C22          H24   1.081       .  S
N25          N26   1.323       .  A
N25          C29   1.346       .  A
N25         Cu33   2.077       .  S
N26          C27   1.346       .  A
N26         Cu32   2.070       .  S
C27          C28   1.379       .  A
C27          H30   1.081       .  S
C28          C29   1.380       .  A
C28        C1248   1.438       .  S
C29          H31   1.081       .  S
Cu32         N35   2.070       .  S
Cu33         N43   2.077       .  S
Cu34         N36   2.073       .  S
Cu34         N42   2.073       .  S
N35          N36   1.323       .  A
N35          C39   1.344       .  A
N36          C37   1.346       .  A
C37          C38   1.379       .  A
C37          H40   1.081       .  S
C38          C39   1.378       .  A
C38        C1236   1.435       .  S
C39          H41   1.081       .  S
N42          N43   1.323       .  A
N42          C46   1.346       .  A
N43          C44   1.346       .  A
C44          C45   1.380       .  A
C44          H47   1.081       .  S
C45          C46   1.379       .  A
C45        C1222   1.437       .  S
C46          H48   1.082       .  S
C49          N50   1.357       .  A
C49          N54   1.357       .  A
C49        C1208   1.434       .  S
N50          C51   1.356       .  A
C51          N52   1.357       .  A
C51        C1234   1.433       .  S
N52          C53   1.357       .  A
C53          N54   1.357       .  A
C53        C1278   1.434       .  S
N55          N56   1.323       .  A
N55          C59   1.345       .  A
N55         Cu63   2.074       .  S
N56          C57   1.346       .  A
N56         Cu62   2.073       .  S
C57          C58   1.380       .  A
C57          H60   1.081       .  S
C58          C59   1.380       .  A
C58        C1192   1.437       .  S
C59          H61   1.081       .  S
Cu62         N65   2.073       .  S
Cu63         N73   2.074       .  S
Cu64         N66   2.071       .  S
Cu64         N72   2.071       .  S
N65          N66   1.323       .  A
N65          C69   1.345       .  A
N66          C67   1.346       .  A
C67          C68   1.379       .  A
C67          H70   1.081       .  S
C68          C69   1.379       .  A
C68        C1206   1.435       .  S
C69          H71   1.081       .  S
N72          N73   1.323       .  A
N72          C76   1.346       .  A
N73          C74   1.345       .  A
C74          C75   1.379       .  A
C74          H77   1.081       .  S
C75          C76   1.379       .  A
C75        C1180   1.436       .  S
C76          H78   1.081       .  S
N79          N80   1.323       .  A
N79          C83   1.345       .  A
N79         Cu87   2.074       .  S
N80          C81   1.345       .  A
N80         Cu86   2.068       .  S
C81          C82   1.379       .  A
C81          H84   1.081       .  S
C82          C83   1.380       .  A
C82        C1262   1.435       .  S
C83          H85   1.081       .  S
Cu86         N89   2.068       .  S
Cu87         N97   2.074       .  S
Cu88         N90   2.075       .  S
Cu88         N96   2.076       .  S
N89          N90   1.323       .  A
N89          C93   1.345       .  A
N90          C91   1.346       .  A
C91          C92   1.379       .  A
C91          H94   1.081       .  S
C92          C93   1.378       .  A
C92        C1166   1.435       .  S
C93          H95   1.081       .  S
N96          N97   1.323       .  A
N96         C100   1.346       .  A
N97          C98   1.345       .  A
C98          C99   1.379       .  A
C98         H101   1.082       .  S
C99         C100   1.380       .  A
C99        C1150   1.438       .  S
C100        H102   1.081       .  S
N103        N104   1.323       .  A
N103        C107   1.346       .  A
N103       Cu111   2.076       .  S
N104        C105   1.345       .  A
N104       Cu110   2.069       .  S
C105        C106   1.379       .  A
C105        H108   1.081       .  S
C106        C107   1.380       .  A
C106       C1138   1.437       .  S
C107        H109   1.081       .  S
Cu110       N113   2.069       .  S
Cu111       N121   2.077       .  S
Cu112       N114   2.074       .  S
Cu112       N120   2.075       .  S
N113        N114   1.323       .  A
N113        C117   1.345       .  A
N114        C115   1.346       .  A
C115        C116   1.380       .  A
C115        H118   1.081       .  S
C116        C117   1.378       .  A
C116       C1122   1.435       .  S
C117        H119   1.081       .  S
N120        N121   1.324       .  A
N120        C124   1.346       .  A
N121        C122   1.346       .  A
C122        C123   1.380       .  A
C122        H125   1.081       .  S
C123        C124   1.380       .  A
C123       C1108   1.438       .  S
C124        H126   1.081       .  S
C127        N128   1.357       .  A
C127        N132   1.356       .  A
C127       C1094   1.433       .  S
N128        C129   1.357       .  A
C129        N130   1.357       .  A
C129       C1164   1.433       .  S
N130        C131   1.357       .  A
C131        N132   1.356       .  A
C131       C1124   1.433       .  S
N133        N134   1.322       .  A
N133        C137   1.346       .  A
N133       Cu141   2.078       .  S
N134        C135   1.346       .  A
N134       Cu140   2.070       .  S
C135        C136   1.380       .  A
C135        H138   1.082       .  S
C136        C137   1.381       .  A
C136       C1080   1.439       .  S
C137        H139   1.082       .  S
Cu140       N143   2.070       .  S
Cu141       N151   2.078       .  S
Cu142       N144   2.076       .  S
Cu142       N150   2.076       .  S
N143        N144   1.324       .  A
N143        C147   1.344       .  A
N144        C145   1.346       .  A
C145        C146   1.380       .  A
C145        H148   1.081       .  S
C146        C147   1.378       .  A
C146       C1096   1.435       .  S
C147        H149   1.081       .  S
N150        N151   1.324       .  A
N150        C154   1.347       .  A
N151        C152   1.346       .  A
C152        C153   1.379       .  A
C152        H155   1.081       .  S
C153        C154   1.380       .  A
C153       C1250   1.438       .  S
C154        H156   1.081       .  S
N157        N158   1.323       .  A
N157        C161   1.345       .  A
N157       Cu165   2.072       .  S
N158        C159   1.345       .  A
N158       Cu164   2.070       .  S
C159        C160   1.379       .  A
C159        H162   1.082       .  S
C160        C161   1.379       .  A
C160       C1178   1.436       .  S
C161        H163   1.081       .  S
Cu164       N167   2.070       .  S
Cu165       N175   2.072       .  S
Cu166       N168   2.072       .  S
Cu166       N174   2.072       .  S
N167        N168   1.323       .  A
N167        C171   1.345       .  A
N168        C169   1.345       .  A
C169        C170   1.379       .  A
C169        H172   1.081       .  S
C170        C171   1.378       .  A
C170       C1066   1.435       .  S
C171        H173   1.081       .  S
N174        N175   1.323       .  A
N174        C178   1.346       .  A
N175        C176   1.345       .  A
C176        C177   1.379       .  A
C176        H179   1.081       .  S
C177        C178   1.380       .  A
C177       C1054   1.436       .  S
C178        H180   1.081       .  S
N181        N182   1.323       .  A
N181        C185   1.345       .  A
N181       Cu189   2.070       .  S
N182        C183   1.346       .  A
N182       Cu188   2.072       .  S
C183        C184   1.380       .  A
C183        H186   1.081       .  S
C184        C185   1.379       .  A
C184       C1040   1.436       .  S
C185        H187   1.081       .  S
Cu188       N191   2.072       .  S
Cu189       N199   2.070       .  S
Cu190       N192   2.073       .  S
Cu190       N198   2.073       .  S
N191        N192   1.323       .  A
N191        C195   1.345       .  A
N192        C193   1.346       .  A
C193        C194   1.379       .  A
C193        H196   1.082       .  S
C194        C195   1.379       .  A
C194       C1024   1.435       .  S
C195        H197   1.081       .  S
N198        N199   1.323       .  A
N198        C202   1.346       .  A
N199        C200   1.345       .  A
C200        C201   1.379       .  A
C200        H203   1.082       .  S
C201        C202   1.379       .  A
C201       C1010   1.436       .  S
C202        H204   1.082       .  S
C205        N206   1.357       .  A
C205        N210   1.357       .  A
C205       C1068   1.434       .  S
N206        C207   1.357       .  A
C207        N208   1.356       .  A
C207       C1026   1.433       .  S
N208        C209   1.356       .  A
C209        N210   1.357       .  A
C209        C996   1.434       .  S
N211        N212   1.323       .  A
N211        C215   1.346       .  A
N211       Cu219   2.078       .  S
N212        C213   1.346       .  A
N212       Cu218   2.072       .  S
C213        C214   1.379       .  A
C213        H216   1.081       .  S
C214        C215   1.380       .  A
C214        C984   1.438       .  S
C215        H217   1.081       .  S
Cu218       N221   2.073       .  S
Cu219       N229   2.078       .  S
Cu220       N222   2.073       .  S
Cu220       N228   2.074       .  S
N221        N222   1.323       .  A
N221        C225   1.345       .  A
N222        C223   1.346       .  A
C223        C224   1.379       .  A
C223        H226   1.081       .  S
C224        C225   1.379       .  A
C224        C998   1.436       .  S
C225        H227   1.081       .  S
N228        N229   1.323       .  A
N228        C232   1.346       .  A
N229        C230   1.346       .  A
C230        C231   1.380       .  A
C230        H233   1.081       .  S
C231        C232   1.380       .  A
C231       C1292   1.439       .  S
C232        H234   1.081       .  S
N235        N236   1.323       .  A
N235        C239   1.346       .  A
N235       Cu243   2.076       .  S
N236        C237   1.345       .  A
N236       Cu242   2.070       .  S
C237        C238   1.379       .  A
C237        H240   1.081       .  S
C238        C239   1.380       .  A
C238       C1012   1.436   1_565  S
C239        H241   1.082       .  S
Cu242       N245   2.070       .  S
Cu243       N253   2.076       .  S
Cu244       N246   2.076       .  S
Cu244       N252   2.076       .  S
N245        N246   1.323       .  A
N245        C249   1.345       .  A
N246        C247   1.346       .  A
C247        C248   1.380       .  A
C247        H250   1.081       .  S
C248        C249   1.379       .  A
C248        C968   1.436       .  S
C249        H251   1.081       .  S
N252        N253   1.323       .  A
N252        C256   1.347       .  A
N253        C254   1.346       .  A
C254        C255   1.380       .  A
C254        H257   1.081       .  S
C255        C256   1.380       .  A
C255        C954   1.439       .  S
C256        H258   1.081       .  S
N259        N260   1.323       .  A
N259        C263   1.345       .  A
N259       Cu267   2.074       .  S
N260        C261   1.345       .  A
N260       Cu266   2.068       .  S
C261        C262   1.379       .  A
C261        H264   1.081       .  S
C262        C263   1.380       .  A
C262        C942   1.436       .  S
C263        H265   1.081       .  S
Cu266       N269   2.068       .  S
Cu267       N277   2.075       .  S
Cu268       N270   2.072       .  S
Cu268       N276   2.072       .  S
N269        N270   1.323       .  A
N269        C273   1.344       .  A
N270        C271   1.345       .  A
C271        C272   1.379       .  A
C271        H274   1.082       .  S
C272        C273   1.378       .  A
C272        C926   1.434       .  S
C273        H275   1.081       .  S
N276        N277   1.323       .  A
N276        C280   1.346       .  A
N277        C278   1.345       .  A
C278        C279   1.379       .  A
C278        H281   1.081       .  S
C279        C280   1.379       .  A
C279        C982   1.437       .  S
C280        H282   1.082       .  S
C283        N284   1.357       .  A
C283        N288   1.356       .  A
C283        C928   1.433       .  S
N284        C285   1.357       .  A
C285        N286   1.357       .  A
C285        C970   1.434       .  S
N286        C287   1.357       .  A
C287        N288   1.356       .  A
C287        C914   1.433       .  S
N289        N290   1.323       .  A
N289        C293   1.347       .  A
N289       Cu297   2.081       .  S
N290        C291   1.346       .  A
N290       Cu296   2.071       .  S
C291        C292   1.379       .  A
C291        H294   1.082       .  S
C292        C293   1.381       .  A
C292        C898   1.439       .  S
C293        H295   1.082       .  S
Cu296       N299   2.071       .  S
Cu297       N307   2.081       .  S
Cu298       N300   2.074       .  S
Cu298       N306   2.074       .  S
N299        N300   1.324       .  A
N299        C303   1.344       .  A
N300        C301   1.346       .  A
C301        C302   1.379       .  A
C301        H304   1.081       .  S
C302        C303   1.378       .  A
C302        C912   1.435       .  S
C303        H305   1.081       .  S
N306        N307   1.324       .  A
N306        C310   1.347       .  A
N307        C308   1.346       .  A
C308        C309   1.380       .  A
C308        H311   1.081       .  S
C309        C310   1.380       .  A
C309        C884   1.439       .  S
C310        H312   1.081       .  S
N313        N314   1.323       .  A
N313        C317   1.346       .  A
N313       Cu321   2.075       .  S
N314        C315   1.345       .  A
N314       Cu320   2.071       .  S
C315        C316   1.379       .  A
C315        H318   1.082       .  S
C316        C317   1.380       .  A
C316       C1110   1.437       .  S
C317        H319   1.081       .  S
Cu320       N323   2.071       .  S
Cu321       N331   2.076       .  S
Cu322       N324   2.076       .  S
Cu322       N330   2.076       .  S
N323        N324   1.323       .  A
N323        C327   1.345       .  A
N324        C325   1.346       .  A
C325        C326   1.380       .  A
C325        H328   1.081       .  S
C326        C327   1.378       .  A
C326        C872   1.436       .  S
C327        H329   1.082       .  S
N330        N331   1.324       .  A
N330        C334   1.346       .  A
N331        C332   1.345       .  A
C332        C333   1.379       .  A
C332        H335   1.081       .  S
C333        C334   1.380       .  A
C333       C1038   1.437       .  S
C334        H336   1.081       .  S
N337        N338   1.323       .  A
N337        C341   1.346       .  A
N337       Cu345   2.075       .  S
N338        C339   1.346       .  A
N338       Cu344   2.073       .  S
C339        C340   1.380       .  A
C339        H342   1.081       .  S
C340        C341   1.380       .  A
C340        C856   1.437       .  S
C341        H343   1.081       .  S
Cu344       N347   2.073       .  S
Cu345       N355   2.075       .  S
Cu346       N348   2.074       .  S
Cu346       N354   2.075       .  S
N347        N348   1.323       .  A
N347        C351   1.345       .  A
N348        C349   1.346       .  A
C349        C350   1.379       .  A
C349        H352   1.081       .  S
C350        C351   1.379       .  A
C350        C844   1.436       .  S
C351        H353   1.081       .  S
N354        N355   1.323       .  A
N354        C358   1.346       .  A
N355        C356   1.346       .  A
C356        C357   1.380       .  A
C356        H359   1.081       .  S
C357        C358   1.380       .  A
C357       C1082   1.438       .  S
C358        H360   1.081       .  S
C361        N362   1.357       .  A
C361        N366   1.356       .  A
C361        C830   1.433       .  S
N362        C363   1.357       .  A
C363        N364   1.358       .  A
C363        C842   1.435       .  S
N364        C365   1.357       .  A
C365        N366   1.356       .  A
C365        C870   1.435       .  S
N367        N368   1.323       .  A
N367        C371   1.345       .  A
N367       Cu375   2.070       .  S
N368        C369   1.346       .  A
N368       Cu374   2.072       .  S
C369        C370   1.379       .  A
C369        H372   1.081       .  S
C370        C371   1.379       .  A
C370       C1052   1.435       .  S
C371        H373   1.081       .  S
Cu374       N377   2.072       .  S
Cu375       N385   2.070       .  S
Cu376       N378   2.074       .  S
Cu376       N384   2.074       .  S
N377        N378   1.324       .  A
N377        C381   1.345       .  A
N378        C379   1.346       .  A
C379        C380   1.379       .  A
C379        H382   1.081       .  S
C380        C381   1.378       .  A
C380        C828   1.435       .  S
C381        H383   1.081       .  S
N384        N385   1.323       .  A
N384        C388   1.346       .  A
N385        C386   1.344       .  A
C386        C387   1.378       .  A
C386        H389   1.082       .  S
C387        C388   1.380       .  A
C387        C814   1.436       .  S
C388        H390   1.082       .  S
N391        N392   1.323       .  A
N391        C395   1.345       .  A
N391       Cu399   2.073       .  S
N392        C393   1.346       .  A
N392       Cu398   2.072       .  S
C393        C394   1.380       .  A
C393        H396   1.082       .  S
C394        C395   1.380       .  A
C394        C800   1.437       .  S
C395        H397   1.082       .  S
Cu398       N401   2.072       .  S
Cu399       N409   2.073       .  S
Cu400       N402   2.071       .  S
Cu400       N408   2.071       .  S
N401        N402   1.323       .  A
N401        C405   1.345       .  A
N402        C403   1.346       .  A
C403        C404   1.379       .  A
C403        H406   1.081       .  S
C404        C405   1.378       .  A
C404        C788   1.435       .  S
C405        H407   1.081       .  S
N408        N409   1.323       .  A
N408        C412   1.346       .  A
N409        C410   1.345       .  A
C410        C411   1.379       .  A
C410        H413   1.081       .  S
C411        C412   1.379       .  A
C411        C940   1.436       .  S
C412        H414   1.081       .  S
N415        N416   1.323       .  A
N415        C419   1.347       .  A
N415       Cu423   2.078       .  S
N416        C417   1.346       .  A
N416       Cu422   2.074       .  S
C417        C418   1.380       .  A
C417        H420   1.081       .  S
C418        C419   1.381       .  A
C418        C886   1.439       .  S
C419        H421   1.081       .  S
Cu422       N425   2.074       .  S
Cu423       N433   2.078       .  S
Cu424       N426   2.074       .  S
Cu424       N432   2.074       .  S
N425        N426   1.323       .  A
N425        C429   1.345       .  A
N426        C427   1.346       .  A
C427        C428   1.380       .  A
C427        H430   1.081       .  S
C428        C429   1.379       .  A
C428        C774   1.437       .  S
C429        H431   1.081       .  S
N432        N433   1.323       .  A
N432        C436   1.346       .  A
N433        C434   1.346       .  A
C434        C435   1.380       .  A
C434        H437   1.081       .  S
C435        C436   1.380       .  A
C435        C858   1.438       .  S
C436        H438   1.082       .  S
C439        N440   1.357       .  A
C439        N444   1.357       .  A
C439        C772   1.435       .  S
N440        C441   1.357       .  A
C441        N442   1.357       .  A
C441        C758   1.435       .  S
N442        C443   1.357       .  A
C443        N444   1.357       .  A
C443        C786   1.434       .  S
N445        N446   1.323       .  A
N445        C449   1.345       .  A
N445       Cu453   2.071       .  S
N446        C447   1.345       .  A
N446       Cu452   2.071       .  S
C447        C448   1.379       .  A
C447        H450   1.081       .  S
C448        C449   1.379       .  A
C448        C816   1.436       .  S
C449        H451   1.081       .  S
Cu452       N455   2.071       .  S
Cu453       N463   2.071       .  S
Cu454       N456   2.073       .  S
Cu454       N462   2.072       .  S
N455        N456   1.323       .  A
N455        C459   1.345       .  A
N456        C457   1.346       .  A
C457        C458   1.379       .  A
C457        H460   1.081       .  S
C458        C459   1.379       .  A
C458        C760   1.436       .  S
C459        H461   1.081       .  S
N462        N463   1.323       .  A
N462        C466   1.346       .  A
N463        C464   1.345       .  A
C464        C465   1.379       .  A
C464        H467   1.081       .  S
C465        C466   1.379       .  A
C465        C744   1.435       .  S
C466        H468   1.081       .  S
N469        N470   1.323       .  A
N469        C473   1.346       .  A
N469       Cu477   2.075       .  S
N470        C471   1.346       .  A
N470       Cu476   2.071       .  S
C471        C472   1.379       .  A
C471        H474   1.081       .  S
C472        C473   1.380       .  A
C472       C1220   1.437   1_565  S
C473        H475   1.081       .  S
Cu476       N479   2.072       .  S
Cu477       N487   2.075       .  S
Cu478       N480   2.074       .  S
Cu478       N486   2.074       .  S
N479        N480   1.323       .  A
N479        C483   1.345       .  A
N480        C481   1.346       .  A
C481        C482   1.379       .  A
C481        H484   1.081       .  S
C482        C483   1.379       .  A
C482        C730   1.436       .  S
C483        H485   1.081       .  S
N486        N487   1.323       .  A
N486        C490   1.346       .  A
N487        C488   1.346       .  A
C488        C489   1.380       .  A
C488        H491   1.081       .  S
C489        C490   1.380       .  A
C489        C900   1.438       .  S
C490        H492   1.081       .  S
N493        N494   1.323       .  A
N493        C497   1.346       .  A
N493       Cu501   2.077       .  S
N494        C495   1.346       .  A
N494       Cu500   2.073       .  S
C495        C496   1.380       .  A
C495        H498   1.082       .  S
C496        C497   1.381       .  A
C496        C956   1.439       .  S
C497        H499   1.081       .  S
Cu500       N503   2.073       .  S
Cu501       N511   2.077       .  S
Cu502       N504   2.075       .  S
Cu502       N510   2.075       .  S
N503        N504   1.323       .  A
N503        C507   1.345       .  A
N504        C505   1.346       .  A
C505        C506   1.380       .  A
C505        H508   1.081       .  S
C506        C507   1.378       .  A
C506        C716   1.436       .  S
C507        H509   1.082       .  S
N510        N511   1.324       .  A
N510        C514   1.346       .  A
N511        C512   1.346       .  A
C512        C513   1.380       .  A
C512        H515   1.081       .  S
C513        C514   1.380       .  A
C513        C704   1.438       .  S
C514        H516   1.081       .  S
C517        N518   1.357       .  A
C517        N522   1.357       .  A
C517        C688   1.434       .  S
N518        C519   1.357       .  A
C519        N520   1.357       .  A
C519        C718   1.434       .  S
N520        C521   1.357       .  A
C521        N522   1.357       .  A
C521        C732   1.435       .  S
N523        N524   1.323       .  A
N523        C527   1.346       .  A
N523       Cu531   2.075       .  S
N524        C525   1.346       .  A
N524       Cu530   2.070       .  S
C525        C526   1.379       .  A
C525        H528   1.081       .  S
C526        C527   1.380       .  A
C526        C676   1.437       .  S
C527        H529   1.081       .  S
Cu530       N533   2.071       .  S
Cu531       N541   2.076       .  S
Cu532       N534   2.075       .  S
Cu532       N540   2.075       .  S
N533        N534   1.323       .  A
N533        C537   1.344       .  A
N534        C535   1.346       .  A
C535        C536   1.380       .  A
C535        H538   1.081       .  S
C536        C537   1.378       .  A
C536        C690   1.435       .  S
C537        H539   1.081       .  S
N540        N541   1.323       .  A
N540        C544   1.346       .  A
N541        C542   1.345       .  A
C542        C543   1.379       .  A
C542        H545   1.082       .  S
C543        C544   1.380       .  A
C543       C1194   1.438       .  S
C544        H546   1.082       .  S
N547        N548   1.323       .  A
N547        C551   1.346       .  A
N547       Cu555   2.073       .  S
N548        C549   1.346       .  A
N548       Cu554   2.075       .  S
C549        C550   1.380       .  A
C549        H552   1.081       .  S
C550        C551   1.380       .  A
C550        C702   1.438       .  S
C551        H553   1.081       .  S
Cu554       N557   2.075       .  S
Cu555       N565   2.073       .  S
Cu556       N558   2.073       .  S
Cu556       N564   2.073       .  S
N557        N558   1.324       .  A
N557        C561   1.345       .  A
N558        C559   1.346       .  A
C559        C560   1.379       .  A
C559        H562   1.082       .  S
C560        C561   1.379       .  A
C560        C660   1.436       .  S
C561        H563   1.081       .  S
N564        N565   1.323       .  A
N564        C568   1.346       .  A
N565        C566   1.345       .  A
C566        C567   1.379       .  A
C566        H569   1.082       .  S
C567        C568   1.379       .  A
C567       C1136   1.436       .  S
C568        H570   1.082       .  S
N571        N572   1.323       .  A
N571        C575   1.345       .  A
N571       Cu579   2.071       .  S
N572        C573   1.345       .  A
N572       Cu578   2.071       .  S
C573        C574   1.379       .  A
C573        H576   1.081       .  S
C574        C575   1.379       .  A
C574        C746   1.435       .  S
C575        H577   1.082       .  S
Cu578       N581   2.071       .  S
Cu579       N589   2.071       .  S
Cu580       N582   2.073       .  S
Cu580       N588   2.074       .  S
N581        N582   1.323       .  A
N581        C585   1.345       .  A
N582        C583   1.345       .  A
C583        C584   1.379       .  A
C583        H586   1.081       .  S
C584        C585   1.379       .  A
C584        C646   1.435       .  S
C585        H587   1.082       .  S
N588        N589   1.323       .  A
N588        C592   1.346       .  A
N589        C590   1.345       .  A
C590        C591   1.379       .  A
C590        H593   1.081       .  S
C591        C592   1.380       .  A
C591        C674   1.437       .  S
C592        H594   1.081       .  S
C595        N596   1.357       .  A
C595        N600   1.357       .  A
C595        C632   1.435       .  S
N596        C597   1.357       .  A
C597        N598   1.357       .  A
C597        C662   1.434       .  S
N598        C599   1.357       .  A
C599        N600   1.357       .  A
C599        C648   1.434       .  S
N601        N602   1.323       .  A
N601        C605   1.346       .  A
N601       Cu609   2.075       .  S
N602        C603   1.346       .  A
N602       Cu608   2.071       .  S
C603        C604   1.380       .  A
C603        H606   1.081       .  S
C604        C605   1.380       .  A
C604       C1152   1.438       .  S
C605        H607   1.081       .  S
Cu608       N611   2.072       .  S
Cu609       N619   2.075       .  S
Cu610       N612   2.078       .  S
Cu610       N618   2.077       .  S
N611        N612   1.324       .  A
N611        C615   1.345       .  A
N612        C613   1.346       .  A
C613        C614   1.380       .  A
C613        H616   1.081       .  S
C614        C615   1.378       .  A
C614        C634   1.437       .  S
C615        H617   1.081       .  S
N618        N619   1.323       .  A
N618        C622   1.347       .  A
N619        C620   1.346       .  A
C620        C621   1.379       .  A
C620        H623   1.081       .  S
C621        C622   1.380       .  A
C621        C802   1.438       .  S
C622        H624   1.081       .  S
C625        C626   1.401       .  A
C625        C630   1.401       .  A
C625        C633   1.439       .  S
C626        C627   1.399       .  A
C626        H635   1.083       .  S
C627        C628   1.401       .  A
C627        H636   1.083       .  S
C628        C629   1.401       .  A
C628        C631   1.439       .  S
C629        C630   1.398       .  A
C629        H637   1.083       .  S
C630        H638   1.083       .  S
C631        C632   1.205       .  T
C633        C634   1.206       .  T
C639        C640   1.401       .  A
C639        C644   1.401       .  A
C639        C647   1.438       .  S
C640        C641   1.398       .  A
C640        H649   1.084       .  S
C641        C642   1.401       .  A
C641        H650   1.083       .  S
C642        C643   1.401       .  A
C642        C645   1.438       .  S
C643        C644   1.398       .  A
C643        H651   1.083       .  S
C644        H652   1.083       .  S
C645        C646   1.205       .  T
C647        C648   1.205       .  T
C653        C654   1.401       .  A
C653        C658   1.401       .  A
C653        C661   1.439       .  S
C654        C655   1.398       .  A
C654        H663   1.083       .  S
C655        C656   1.401       .  A
C655        H664   1.084       .  S
C656        C657   1.401       .  A
C656        C659   1.439       .  S
C657        C658   1.399       .  A
C657        H665   1.083       .  S
C658        H666   1.084       .  S
C659        C660   1.205       .  T
C661        C662   1.205       .  T
C667        C668   1.402       .  A
C667        C672   1.401       .  A
C667        C675   1.440       .  S
C668        C669   1.400       .  A
C668        H677   1.083       .  S
C669        C670   1.402       .  A
C669        H678   1.083       .  S
C670        C671   1.401       .  A
C670        C673   1.440       .  S
C671        C672   1.398       .  A
C671        H679   1.083       .  S
C672        H680   1.083       .  S
C673        C674   1.206       .  T
C675        C676   1.206       .  T
C681        C682   1.401       .  A
C681        C686   1.401       .  A
C681        C689   1.438       .  S
C682        C683   1.399       .  A
C682        H691   1.083       .  S
C683        C684   1.401       .  A
C683        H692   1.083       .  S
C684        C685   1.401       .  A
C684        C687   1.438       .  S
C685        C686   1.398       .  A
C685        H693   1.083       .  S
C686        H694   1.084       .  S
C687        C688   1.205       .  T
C689        C690   1.205       .  T
C695        C696   1.401       .  A
C695        C700   1.402       .  A
C695        C703   1.441       .  S
C696        C697   1.399       .  A
C696        H705   1.083       .  S
C697        C698   1.401       .  A
C697        H706   1.083   1_554  S
C698        C699   1.402       .  A
C698        C701   1.441   1_554  S
C699        C700   1.400       .  A
C699        H707   1.083       .  S
C700        H708   1.083       .  S
C701        C702   1.207       .  T
C703        C704   1.207       .  T
C709        C710   1.401       .  A
C709        C714   1.401       .  A
C709        C717   1.439       .  S
C710        C711   1.399       .  A
C710        H719   1.083       .  S
C711        C712   1.401       .  A
C711        H720   1.083       .  S
C712        C713   1.401       .  A
C712        C715   1.439       .  S
C713        C714   1.399       .  A
C713        H721   1.083       .  S
C714        H722   1.084       .  S
C715        C716   1.205       .  T
C717        C718   1.205       .  T
C723        C724   1.401       .  A
C723        C728   1.401       .  A
C723        C731   1.439       .  S
C724        C725   1.398       .  A
C724        H733   1.083       .  S
C725        C726   1.401       .  A
C725        H734   1.083       .  S
C726        C727   1.401       .  A
C726        C729   1.439       .  S
C727        C728   1.399       .  A
C727        H735   1.083       .  S
C728        H736   1.083       .  S
C729        C730   1.205       .  T
C731        C732   1.205       .  T
C737        C738   1.401       .  A
C737        C742   1.401       .  A
C737        C745   1.438       .  S
C738        C739   1.399       .  A
C738        H747   1.083       .  S
C739        C740   1.401       .  A
C739        H748   1.083       .  S
C740        C741   1.401       .  A
C740        C743   1.438   1_455  S
C741        C742   1.398       .  A
C741        H749   1.083       .  S
C742        H750   1.083       .  S
C743        C744   1.205       .  T
C745        C746   1.205       .  T
C751        C752   1.401       .  A
C751        C756   1.401       .  A
C751        C759   1.439       .  S
C752        C753   1.399       .  A
C752        H761   1.083       .  S
C753        C754   1.402       .  A
C753        H762   1.083       .  S
C754        C755   1.401       .  A
C754        C757   1.439       .  S
C755        C756   1.398       .  A
C755        H763   1.083       .  S
C756        H764   1.084       .  S
C757        C758   1.206       .  T
C759        C760   1.205       .  T
C765        C766   1.401       .  A
C765        C770   1.401       .  A
C765        C773   1.440       .  S
C766        C767   1.399       .  A
C766        H775   1.083       .  S
C767        C768   1.401       .  A
C767        H776   1.083       .  S
C768        C769   1.401       .  A
C768        C771   1.439       .  S
C769        C770   1.399       .  A
C769        H777   1.084       .  S
C770        H778   1.083       .  S
C771        C772   1.205       .  T
C773        C774   1.206       .  T
C779        C780   1.401       .  A
C779        C784   1.401       .  A
C779        C787   1.438       .  S
C780        C781   1.399       .  A
C780        H789   1.083       .  S
C781        C782   1.401       .  A
C781        H790   1.083       .  S
C782        C783   1.401       .  A
C782        C785   1.438       .  S
C783        C784   1.398       .  A
C783        H791   1.083       .  S
C784        H792   1.083       .  S
C785        C786   1.205       .  T
C787        C788   1.205       .  T
C793        C794   1.401       .  A
C793        C798   1.402       .  A
C793        C801   1.441       .  S
C794        C795   1.399       .  A
C794        H803   1.083       .  S
C795        C796   1.401       .  A
C795        H804   1.083       .  S
C796        C797   1.401       .  A
C796        C799   1.441       .  S
C797        C798   1.399       .  A
C797        H805   1.084       .  S
C798        H806   1.083       .  S
C799        C800   1.206       .  T
C801        C802   1.207       .  T
C807        C808   1.401       .  A
C807        C812   1.401       .  A
C807        C815   1.439       .  S
C808        C809   1.399       .  A
C808        H817   1.083       .  S
C809        C810   1.401       .  A
C809        H818   1.083       .  S
C810        C811   1.401       .  A
C810        C813   1.439       .  S
C811        C812   1.399       .  A
C811        H819   1.083       .  S
C812        H820   1.083       .  S
C813        C814   1.205       .  T
C815        C816   1.205       .  T
C821        C822   1.401       .  A
C821        C826   1.401       .  A
C821        C829   1.438       .  S
C822        C823   1.398       .  A
C822        H831   1.083       .  S
C823        C824   1.401       .  A
C823        H832   1.084       .  S
C824        C825   1.401       .  A
C824        C827   1.438       .  S
C825        C826   1.399       .  A
C825        H833   1.083       .  S
C826        H834   1.083       .  S
C827        C828   1.205       .  T
C829        C830   1.205       .  T
C835        C836   1.402       .  A
C835        C840   1.401       .  A
C835        C843   1.439       .  S
C836        C837   1.399       .  A
C836        H845   1.083       .  S
C837        C838   1.402       .  A
C837        H846   1.083       .  S
C838        C839   1.401       .  A
C838        C841   1.439       .  S
C839        C840   1.398       .  A
C839        H847   1.083       .  S
C840        H848   1.083       .  S
C841        C842   1.206       .  T
C843        C844   1.206       .  T
C849        C850   1.401       .  A
C849        C854   1.402       .  A
C849        C857   1.441       .  S
C850        C851   1.399       .  A
C850        H859   1.083       .  S
C851        C852   1.401       .  A
C851        H860   1.083       .  S
C852        C853   1.402       .  A
C852        C855   1.440       .  S
C853        C854   1.400       .  A
C853        H861   1.083       .  S
C854        H862   1.083       .  S
C855        C856   1.206       .  T
C857        C858   1.206   1_545  T
C863        C864   1.401       .  A
C863        C868   1.401       .  A
C863        C871   1.439       .  S
C864        C865   1.399       .  A
C864        H873   1.083       .  S
C865        C866   1.401       .  A
C865        H874   1.083       .  S
C866        C867   1.401       .  A
C866        C869   1.439       .  S
C867        C868   1.399       .  A
C867        H875   1.083       .  S
C868        H876   1.083       .  S
C869        C870   1.205       .  T
C871        C872   1.205       .  T
C877        C878   1.402       .  A
C877        C882   1.401       .  A
C877        C885   1.442       .  S
C878        C879   1.401       .  A
C878        H887   1.083       .  S
C879        C880   1.402       .  A
C879        H888   1.083       .  S
C880        C881   1.402       .  A
C880        C883   1.442       .  S
C881        C882   1.400       .  A
C881        H889   1.083       .  S
C882        H890   1.083       .  S
C883        C884   1.207       .  T
C885        C886   1.207       .  T
C891        C892   1.401       .  A
C891        C896   1.402       .  A
C891        C899   1.441       .  S
C892        C893   1.399       .  A
C892        H901   1.083       .  S
C893        C894   1.402       .  A
C893        H902   1.083       .  S
C894        C895   1.402       .  A
C894        C897   1.442       .  S
C895        C896   1.400       .  A
C895        H903   1.083       .  S
C896        H904   1.083       .  S
C897        C898   1.207       .  T
C899        C900   1.207       .  T
C905        C906   1.401       .  A
C905        C910   1.401       .  A
C905        C913   1.438       .  S
C906        C907   1.398       .  A
C906        H915   1.083       .  S
C907        C908   1.401       .  A
C907        H916   1.083       .  S
C908        C909   1.401       .  A
C908        C911   1.438       .  S
C909        C910   1.398       .  A
C909        H917   1.083       .  S
C910        H918   1.084       .  S
C911        C912   1.205       .  T
C913        C914   1.205       .  T
C919        C920   1.401       .  A
C919        C924   1.401       .  A
C919        C927   1.437       .  S
C920        C921   1.398       .  A
C920        H929   1.083       .  S
C921        C922   1.401       .  A
C921        H930   1.083       .  S
C922        C923   1.401       .  A
C922        C925   1.437       .  S
C923        C924   1.398       .  A
C923        H931   1.083       .  S
C924        H932   1.083       .  S
C925        C926   1.204       .  T
C927        C928   1.204       .  T
C933        C934   1.401       .  A
C933        C938   1.401       .  A
C933        C941   1.439       .  S
C934        C935   1.399       .  A
C934        H943   1.083       .  S
C935        C936   1.401   1_554  A
C935        H944   1.083   1_554  S
C936        C937   1.401   1_556  A
C936        C939   1.439       .  S
C937        C938   1.398       .  A
C937        H945   1.083       .  S
C938        H946   1.083       .  S
C939        C940   1.205       .  T
C941        C942   1.205       .  T
C947        C948   1.402       .  A
C947        C952   1.401       .  A
C947        C955   1.442       .  S
C948        C949   1.401       .  A
C948        H957   1.083       .  S
C949        C950   1.402       .  A
C949        H958   1.083       .  S
C950        C951   1.401       .  A
C950        C953   1.442   1_455  S
C951        C952   1.399       .  A
C951        H959   1.084       .  S
C952        H960   1.083       .  S
C953        C954   1.207       .  T
C955        C956   1.207       .  T
C961        C962   1.401       .  A
C961        C966   1.401       .  A
C961        C969   1.438       .  S
C962        C963   1.399       .  A
C962        H971   1.083       .  S
C963        C964   1.401       .  A
C963        H972   1.083       .  S
C964        C965   1.401       .  A
C964        C967   1.439       .  S
C965        C966   1.398       .  A
C965        H973   1.083       .  S
C966        H974   1.083       .  S
C967        C968   1.205       .  T
C969        C970   1.205       .  T
C975        C976   1.402       .  A
C975        C980   1.401       .  A
C975        C983   1.440       .  S
C976        C977   1.400       .  A
C976        H985   1.084       .  S
C977        C978   1.402       .  A
C977        H986   1.083       .  S
C978        C979   1.401       .  A
C978        C981   1.440       .  S
C979        C980   1.399       .  A
C979        H987   1.083       .  S
C980        H988   1.083       .  S
C981        C982   1.206       .  T
C983        C984   1.206       .  T
C989        C990   1.401       .  A
C989        C994   1.401       .  A
C989        C997   1.439       .  S
C990        C991   1.399       .  A
C990        H999   1.083       .  S
C991        C992   1.401       .  A
C991       H1000   1.083       .  S
C992        C993   1.401       .  A
C992        C995   1.438       .  S
C993        C994   1.398       .  A
C993       H1001   1.083       .  S
C994       H1002   1.083       .  S
C995        C996   1.205       .  T
C997        C998   1.205       .  T
C1003      C1004   1.401       .  A
C1003      C1008   1.402       .  A
C1003      C1011   1.439       .  S
C1004      C1005   1.398       .  A
C1004      H1013   1.083       .  S
C1005      C1006   1.401       .  A
C1005      H1014   1.083       .  S
C1006      C1007   1.401       .  A
C1006      C1009   1.439       .  S
C1007      C1008   1.399       .  A
C1007      H1015   1.083       .  S
C1008      H1016   1.083       .  S
C1009      C1010   1.205       .  T
C1011      C1012   1.205       .  T
C1017      C1018   1.401       .  A
C1017      C1022   1.401       .  A
C1017      C1025   1.438       .  S
C1018      C1019   1.398       .  A
C1018      H1027   1.083       .  S
C1019      C1020   1.401       .  A
C1019      H1028   1.083       .  S
C1020      C1021   1.401       .  A
C1020      C1023   1.438       .  S
C1021      C1022   1.398       .  A
C1021      H1029   1.083       .  S
C1022      H1030   1.084       .  S
C1023      C1024   1.205       .  T
C1025      C1026   1.205       .  T
C1031      C1032   1.401       .  A
C1031      C1036   1.401       .  A
C1031      C1039   1.439       .  S
C1032      C1033   1.399       .  A
C1032      H1041   1.083       .  S
C1033      C1034   1.401   1_554  A
C1033      H1042   1.083   1_554  S
C1034      C1035   1.402   1_556  A
C1034      C1037   1.440       .  S
C1035      C1036   1.399       .  A
C1035      H1043   1.083       .  S
C1036      H1044   1.083       .  S
C1037      C1038   1.206       .  T
C1039      C1040   1.205       .  T
C1045      C1046   1.401       .  A
C1045      C1050   1.401       .  A
C1045      C1053   1.439       .  S
C1046      C1047   1.399       .  A
C1046      H1055   1.083       .  S
C1047      C1048   1.401       .  A
C1047      H1056   1.083       .  S
C1048      C1049   1.401       .  A
C1048      C1051   1.439       .  S
C1049      C1050   1.399       .  A
C1049      H1057   1.083       .  S
C1050      H1058   1.083       .  S
C1051      C1052   1.205       .  T
C1053      C1054   1.205       .  T
C1059      C1060   1.401       .  A
C1059      C1064   1.401       .  A
C1059      C1067   1.438       .  S
C1060      C1061   1.399       .  A
C1060      H1069   1.083       .  S
C1061      C1062   1.401       .  A
C1061      H1070   1.083       .  S
C1062      C1063   1.401       .  A
C1062      C1065   1.438       .  S
C1063      C1064   1.398       .  A
C1063      H1071   1.083       .  S
C1064      H1072   1.084       .  S
C1065      C1066   1.204       .  T
C1067      C1068   1.205       .  T
C1073      C1074   1.402       .  A
C1073      C1078   1.401       .  A
C1073      C1081   1.441       .  S
C1074      C1075   1.400       .  A
C1074      H1083   1.083       .  S
C1075      C1076   1.402       .  A
C1075      H1084   1.083       .  S
C1076      C1077   1.401       .  A
C1076      C1079   1.442       .  S
C1077      C1078   1.399       .  A
C1077      H1085   1.083       .  S
C1078      H1086   1.083       .  S
C1079      C1080   1.207       .  T
C1081      C1082   1.207       .  T
C1087      C1088   1.401       .  A
C1087      C1092   1.401       .  A
C1087      C1095   1.438       .  S
C1088      C1089   1.398       .  A
C1088      H1097   1.083       .  S
C1089      C1090   1.401       .  A
C1089      H1098   1.083       .  S
C1090      C1091   1.401       .  A
C1090      C1093   1.438       .  S
C1091      C1092   1.398       .  A
C1091      H1099   1.083       .  S
C1092      H1100   1.083       .  S
C1093      C1094   1.205       .  T
C1095      C1096   1.205       .  T
C1101      C1102   1.402       .  A
C1101      C1106   1.401       .  A
C1101      C1109   1.440       .  S
C1102      C1103   1.400       .  A
C1102      H1111   1.083       .  S
C1103      C1104   1.402       .  A
C1103      H1112   1.083       .  S
C1104      C1105   1.401       .  A
C1104      C1107   1.441       .  S
C1105      C1106   1.399       .  A
C1105      H1113   1.083       .  S
C1106      H1114   1.083       .  S
C1107      C1108   1.206       .  T
C1109      C1110   1.206   1_455  T
C1115      C1116   1.401       .  A
C1115      C1120   1.401       .  A
C1115      C1123   1.438       .  S
C1116      C1117   1.399       .  A
C1116      H1125   1.083       .  S
C1117      C1118   1.401       .  A
C1117      H1126   1.083       .  S
C1118      C1119   1.401       .  A
C1118      C1121   1.438       .  S
C1119      C1120   1.398       .  A
C1119      H1127   1.084       .  S
C1120      H1128   1.083       .  S
C1121      C1122   1.205       .  T
C1123      C1124   1.205       .  T
C1129      C1130   1.401       .  A
C1129      C1134   1.402       .  A
C1129      C1137   1.439       .  S
C1130      C1131   1.398       .  A
C1130      H1139   1.083       .  S
C1131      C1132   1.401       .  A
C1131      H1140   1.083       .  S
C1132      C1133   1.402       .  A
C1132      C1135   1.439       .  S
C1133      C1134   1.400       .  A
C1133      H1141   1.083       .  S
C1134      H1142   1.083       .  S
C1135      C1136   1.205   1_545  T
C1137      C1138   1.206       .  T
C1143      C1144   1.402       .  A
C1143      C1148   1.401       .  A
C1143      C1151   1.441       .  S
C1144      C1145   1.400       .  A
C1144      H1153   1.083       .  S
C1145      C1146   1.402       .  A
C1145      H1154   1.083       .  S
C1146      C1147   1.401       .  A
C1146      C1149   1.441       .  S
C1147      C1148   1.399       .  A
C1147      H1155   1.083       .  S
C1148      H1156   1.083       .  S
C1149      C1150   1.206       .  T
C1151      C1152   1.206       .  T
C1157      C1158   1.401       .  A
C1157      C1162   1.401       .  A
C1157      C1165   1.438       .  S
C1158      C1159   1.398       .  A
C1158      H1167   1.083       .  S
C1159      C1160   1.401       .  A
C1159      H1168   1.083       .  S
C1160      C1161   1.401       .  A
C1160      C1163   1.438       .  S
C1161      C1162   1.399       .  A
C1161      H1169   1.083       .  S
C1162      H1170   1.083       .  S
C1163      C1164   1.205       .  T
C1165      C1166   1.205       .  T
C1171      C1172   1.401       .  A
C1171      C1176   1.401       .  A
C1171      C1179   1.439       .  S
C1172      C1173   1.398       .  A
C1172      H1181   1.083       .  S
C1173      C1174   1.401       .  A
C1173      H1182   1.083       .  S
C1174      C1175   1.401       .  A
C1174      C1177   1.439       .  S
C1175      C1176   1.399       .  A
C1175      H1183   1.083       .  S
C1176      H1184   1.083       .  S
C1177      C1178   1.205   1_455  T
C1179      C1180   1.205       .  T
C1185      C1186   1.401       .  A
C1185      C1190   1.402       .  A
C1185      C1193   1.440       .  S
C1186      C1187   1.399       .  A
C1186      H1195   1.083       .  S
C1187      C1188   1.401       .  A
C1187      H1196   1.083       .  S
C1188      C1189   1.401       .  A
C1188      C1191   1.440       .  S
C1189      C1190   1.400       .  A
C1189      H1197   1.083       .  S
C1190      H1198   1.083       .  S
C1191      C1192   1.206       .  T
C1193      C1194   1.206       .  T
C1199      C1200   1.401       .  A
C1199      C1204   1.401       .  A
C1199      C1207   1.438       .  S
C1200      C1201   1.399       .  A
C1200      H1209   1.084       .  S
C1201      C1202   1.401       .  A
C1201      H1210   1.083       .  S
C1202      C1203   1.401       .  A
C1202      C1205   1.438       .  S
C1203      C1204   1.398       .  A
C1203      H1211   1.083       .  S
C1204      H1212   1.083       .  S
C1205      C1206   1.205       .  T
C1207      C1208   1.205       .  T
C1213      C1214   1.401       .  A
C1213      C1218   1.402       .  A
C1213      C1221   1.440       .  S
C1214      C1215   1.399       .  A
C1214      H1223   1.083       .  S
C1215      C1216   1.401       .  A
C1215      H1224   1.083       .  S
C1216      C1217   1.401       .  A
C1216      C1219   1.440       .  S
C1217      C1218   1.400       .  A
C1217      H1225   1.083       .  S
C1218      H1226   1.083       .  S
C1219      C1220   1.206       .  T
C1221      C1222   1.206       .  T
C1227      C1228   1.401       .  A
C1227      C1232   1.401       .  A
C1227      C1235   1.438       .  S
C1228      C1229   1.398       .  A
C1228      H1237   1.083       .  S
C1229      C1230   1.401       .  A
C1229      H1238   1.083       .  S
C1230      C1231   1.401       .  A
C1230      C1233   1.438       .  S
C1231      C1232   1.398       .  A
C1231      H1239   1.083       .  S
C1232      H1240   1.083       .  S
C1233      C1234   1.205       .  T
C1235      C1236   1.205       .  T
C1241      C1242   1.402       .  A
C1241      C1246   1.401       .  A
C1241      C1249   1.441       .  S
C1242      C1243   1.400       .  A
C1242      H1251   1.083       .  S
C1243      C1244   1.402       .  A
C1243      H1252   1.083       .  S
C1244      C1245   1.401       .  A
C1244      C1247   1.441       .  S
C1245      C1246   1.399       .  A
C1245      H1253   1.083       .  S
C1246      H1254   1.083       .  S
C1247      C1248   1.207       .  T
C1249      C1250   1.207       .  T
C1255      C1256   1.401       .  A
C1255      C1260   1.401       .  A
C1255      C1263   1.439       .  S
C1256      C1257   1.398       .  A
C1256      H1265   1.083       .  S
C1257      C1258   1.401       .  A
C1257      H1266   1.083       .  S
C1258      C1259   1.401       .  A
C1258      C1261   1.439   1_554  S
C1259      C1260   1.399       .  A
C1259      H1267   1.083       .  S
C1260      H1268   1.083       .  S
C1261      C1262   1.205       .  T
C1263      C1264   1.205       .  T
C1269      C1270   1.401       .  A
C1269      C1274   1.401       .  A
C1269      C1277   1.438       .  S
C1270      C1271   1.398       .  A
C1270      H1279   1.083       .  S
C1271      C1272   1.401       .  A
C1271      H1280   1.083       .  S
C1272      C1273   1.401       .  A
C1272      C1275   1.438       .  S
C1273      C1274   1.398       .  A
C1273      H1281   1.083       .  S
C1274      H1282   1.084       .  S
C1275      C1276   1.205       .  T
C1277      C1278   1.205       .  T
C1283      C1284   1.402       .  A
C1283      C1288   1.402       .  A
C1283      C1291   1.442       .  S
C1284      C1285   1.400       .  A
C1284      H1293   1.083       .  S
C1285      C1286   1.402       .  A
C1285      H1294   1.083       .  S
C1286      C1287   1.402       .  A
C1286      C1289   1.442       .  S
C1287      C1288   1.400       .  A
C1287      H1295   1.083       .  S
C1288      H1296   1.083       .  S
C1289      C1290   1.207       .  T
C1291      C1292   1.207       .  T
