geometry optimzed in LAMMPS
_audit_creation_date              2020-11-30 
_audit_creation_method            'lammps2cif' 
_symmetry_space_group_name_H-M    'P1' 
_symmetry_Int_Tables_number       1 
_symmetry_cell_setting            triclinic 
loop_ 
_symmetry_equiv_pos_as_xyz 
  x,y,z 
_cell_length_a                    26.45353042 
_cell_length_b                    45.22795326057987 
_cell_length_c                    38.37473989493836 
_cell_angle_alpha                 90.122129313652 
_cell_angle_beta                  102.30853063923607 
_cell_angle_gamma                 91.0607555868112 
loop_ 
_atom_site_label 
_atom_site_type_symbol 
_atom_site_fract_x 
_atom_site_fract_y 
_atom_site_fract_z 
_atom_site_charge 
C1          C  0.09004363  0.86774852  0.15101430     0.86300
C2          C  0.05110404  0.86266350  0.17502133    -0.53900
C3          C  0.06104706  0.83899941  0.19730567     0.09200
C4          C  0.10982567  0.82228871  0.19356592     0.20200
C5          C  0.14312110  0.86946481  0.17718410    -0.54700
C6          C  0.15362776  0.84594089  0.19990908     0.09300
C7          C  0.09212043  0.83833951  0.13159430    -0.54200
C8          C  0.10274778  0.81466938  0.15363364     0.09900
H9          H  0.01889539  0.87723428  0.17496344     0.14400
H10         H  0.11630074  0.80277023  0.21111163     0.00200
H11         H  0.17182928  0.88664893  0.17702273     0.14700
H12         H  0.08833102  0.83659926  0.10290330     0.14500
C13         C  0.15638539  0.64800802  0.10458918     0.86300
C14         C  0.16008154  0.67826554  0.12297298    -0.53900
C15         C  0.14889756  0.70140831  0.10003027     0.09200
C16         C  0.13612315  0.69229712  0.06025353     0.20200
C17         C  0.10104800  0.64760093  0.08146434    -0.54700
C18         C  0.09048820  0.67014726  0.05746923     0.09300
C19         C  0.19184559  0.65037282  0.07786869    -0.54200
C20         C  0.18158089  0.67342904  0.05482388     0.09900
H21         H  0.16662274  0.68097052  0.15173970     0.14400
H22         H  0.12953353  0.71111050  0.04156488     0.00200
H23         H  0.07082671  0.63220043  0.08465508     0.14700
H24         H  0.22245397  0.63485452  0.07706299     0.14500
C25         C  0.41848626  0.86405429  0.35423758     0.86300
C26         C  0.45301896  0.85872202  0.32711141    -0.53900
C27         C  0.43622342  0.83649625  0.30321761     0.09200
C28         C  0.38640895  0.82096439  0.30863741     0.20200
C29         C  0.36409681  0.86810651  0.33121621    -0.54700
C30         C  0.34724926  0.84611514  0.30667403     0.09300
C31         C  0.41565061  0.83376466  0.37171073    -0.54200
C32         C  0.39778895  0.81140279  0.34812344     0.09900
H33         H  0.48826353  0.87072027  0.32597247     0.14400
H34         H  0.37424856  0.80241925  0.28960246     0.00200
H35         H  0.34057699  0.88655988  0.33546588     0.14700
H36         H  0.42429464  0.83049378  0.40038472     0.14500
C37         C  0.32980837  0.64574942  0.39938057     0.86300
C38         C  0.33365109  0.67537972  0.38078325    -0.53900
C39         C  0.34637076  0.69880696  0.40355294     0.09200
C40         C  0.35377115  0.69067294  0.44338755     0.20200
C41         C  0.38322985  0.64384163  0.42487089    -0.54700
C42         C  0.39523984  0.66662292  0.44880227     0.09300
C43         C  0.29169682  0.65063041  0.42385794    -0.54200
C44         C  0.30374200  0.67401380  0.44696044     0.09900
H45         H  0.32958380  0.67744801  0.35212308     0.14400
H46         H  0.36321213  0.71005702  0.46148470     0.00200
H47         H  0.41178167  0.62762827  0.42269687     0.14700
H48         H  0.25848158  0.63605685  0.42352774     0.14500
C49         C  0.09449165  0.14850474  0.14833802     0.86300
C50         C  0.10118950  0.17881725  0.13193521    -0.53900
C51         C  0.10924277  0.20216550  0.15532940     0.09200
C52         C  0.11270113  0.19234438  0.19459811     0.20200
C53         C  0.14461190  0.14553956  0.17660452    -0.54700
C54         C  0.15448529  0.16828770  0.20068026     0.09300
C55         C  0.05184156  0.15316474  0.16906219    -0.54200
C56         C  0.06146648  0.17512996  0.19427466     0.09900
H57         H  0.10255683  0.18215266  0.10438963     0.14400
H58         H  0.12062733  0.21032563  0.21473489     0.00200
H59         H  0.17091494  0.12731677  0.17700955     0.14700
H60         H  0.01757200  0.13890487  0.16519074     0.14500
C61         C  0.15248769  0.37132295  0.09264429     0.86300
C62         C  0.18811881  0.36532196  0.06648428    -0.53900
C63         C  0.17307206  0.34195284  0.04395088     0.09200
C64         C  0.12317013  0.32648051  0.04945979     0.20200
C65         C  0.09885547  0.37466651  0.06845081    -0.54700
C66         C  0.08313849  0.35168144  0.04532891     0.09300
C67         C  0.14949545  0.34175408  0.11149814    -0.54200
C68         C  0.13444850  0.31762799  0.08970760     0.09900
H69         H  0.22167977  0.37847571  0.06410595     0.14400
H70         H  0.11208819  0.30837315  0.03013557     0.00200
H71         H  0.07517414  0.39371271  0.07011479     0.14700
H72         H  0.15734388  0.34079046  0.14035535     0.14500
C73         C  0.41380286  0.14543008  0.35350405     0.86300
C74         C  0.40757149  0.17523987  0.37110200    -0.53900
C75         C  0.39544899  0.19792330  0.34750135     0.09200
C76         C  0.39209514  0.18901637  0.30801643     0.20200
C77         C  0.36312962  0.14089815  0.32528882    -0.54700
C78         C  0.35142258  0.16372816  0.30168264     0.09300
C79         C  0.45581429  0.15261347  0.33236866    -0.54200
C80         C  0.44359226  0.17378730  0.30701548     0.09900
H81         H  0.41139345  0.17826908  0.39961982     0.14400
H82         H  0.38271005  0.20767136  0.28912407     0.00200
H83         H  0.33791884  0.12160362  0.32477500     0.14700
H84         H  0.49259448  0.14165905  0.33599167     0.14500
C85         C  0.32931541  0.36482692  0.38896636     0.86300
C86         C  0.29230513  0.36097933  0.41440472    -0.53900
C87         C  0.30550687  0.33956845  0.43932387     0.09200
C88         C  0.35475733  0.32314731  0.43615872     0.20200
C89         C  0.38350563  0.36896386  0.41298631    -0.54700
C90         C  0.39735896  0.34746252  0.43827252     0.09300
C91         C  0.33172276  0.33387843  0.37259014    -0.54200
C92         C  0.34548352  0.31221895  0.39719757     0.09900
H93         H  0.25877266  0.37475330  0.41329115     0.14400
H94         H  0.36252469  0.30526106  0.45593692     0.00200
H95         H  0.40885980  0.38720377  0.40911572     0.14700
H96         H  0.32760577  0.32902534  0.34450872     0.14500
O97         O  0.17889561  0.53831163  0.21831907    -0.73100
O98         O  0.21965708  0.47447761  0.29018124    -0.74100
O99         O  0.21951438  0.53764512  0.29217028    -0.62700
O100        O  0.17833305  0.47572601  0.21583600    -0.71100
O101        O  0.25712949  0.47833447  0.20496498    -0.70700
O102        O  0.29983316  0.53760576  0.28333258    -0.62000
O103        O  0.29846449  0.47514899  0.27846127    -0.74500
O104        O  0.25923640  0.54087649  0.20969122    -0.73200
Cu105      Cu  0.19626480  0.50648684  0.25455883     1.04600
Cu106      Cu  0.28141618  0.50803500  0.24380976     1.04300
C107        C  0.21276727  0.54987604  0.20299769     0.93100
C108        C  0.26530904  0.46431748  0.29482634     0.92200
C109        C  0.26614733  0.54751518  0.29950598     0.84300
C110        C  0.21128242  0.46729598  0.19807155     0.90600
O111        O  0.06251784  0.03889937  0.03280656    -0.73100
O112        O  0.02012198  0.97512098  0.46008430    -0.74100
O113        O  0.01667417  0.03773711  0.45857425    -0.62700
O114        O  0.06279040  0.97637962  0.03498097    -0.71100
O115        O  0.48372774  0.97443225  0.04601148    -0.70700
O116        O  0.43910988  0.03695076  0.47178294    -0.62000
O117        O  0.44127603  0.97372985  0.47108341    -0.74500
O118        O  0.48548608  0.03753451  0.04722322    -0.73200
Cu119      Cu  0.04395331  0.00737334  0.49559294     1.04600
Cu120      Cu  0.45868921  0.00589924  0.01016029     1.04300
C121        C  0.03134562  0.04842670  0.05118276     0.93100
C122        C  0.47433848  0.96406623  0.45409463     0.92200
C123        C  0.47040301  0.04716975  0.45339960     0.84300
C124        C  0.03021590  0.96542474  0.05188354     0.90600
C125        C  0.31344576  0.39093185  0.36381409    -0.00300
C126        C  0.29655749  0.38671359  0.32665446    -0.12200
C127        C  0.28034507  0.41042549  0.30400757     0.01900
C128        C  0.27978196  0.43901596  0.31822983    -0.00400
C129        C  0.29570422  0.44367601  0.35490031    -0.12200
C130        C  0.31265024  0.42012228  0.37770696     0.01800
H131        H  0.29482697  0.36513096  0.31453743     0.14800
H132        H  0.29558990  0.46587415  0.36567410     0.14800
C133        C  0.32918264  0.42675771  0.41532556     0.36400
C134        C  0.26405109  0.40483927  0.26612945     0.36300
N135        N  0.34275552  0.43206381  0.44542549    -0.43900
N136        N  0.25113956  0.40023086  0.23583136    -0.43900
C137        C  0.42560287  0.11877522  0.37884730    -0.00300
C138        C  0.46141004  0.09745417  0.37307860    -0.12200
C139        C  0.47588610  0.07402789  0.39650307     0.01900
C140        C  0.45334229  0.07046476  0.42637575    -0.00400
C141        C  0.41369527  0.08960818  0.43037697    -0.12200
C142        C  0.39900665  0.11312451  0.40668415     0.01800
H143        H  0.47766078  0.09802172  0.34960116     0.14800
H144        H  0.39431056  0.08639953  0.45233825     0.14800
C145        C  0.35549459  0.13031292  0.41126688     0.36400
C146        C  0.01262824  0.05335634  0.38812281     0.36300
N147        N  0.32031621  0.14366226  0.41536152    -0.43900
N148        N  0.04203573  0.03692446  0.38114273    -0.43900
C149        C  0.38167545  0.22735620  0.35933579    -0.00300
C150        C  0.41707170  0.25103009  0.36123476    -0.12200
C151        C  0.40667197  0.27860865  0.37469060     0.01900
C152        C  0.36004404  0.28272781  0.38631398    -0.00400
C153        C  0.32477594  0.25913077  0.38446024    -0.12200
C154        C  0.33513230  0.23158194  0.37109044     0.01800
H155        H  0.45315937  0.24781975  0.35273206     0.14800
H156        H  0.28860499  0.26242507  0.39283638     0.14800
C157        C  0.29650105  0.20838360  0.36898369     0.36400
C158        C  0.44473010  0.30223761  0.37699454     0.36300
N159        N  0.26441891  0.19043924  0.36763918    -0.43900
N160        N  0.47529872  0.32116250  0.37909397    -0.43900
C161        C  0.16748587  0.39722651  0.11926304    -0.00300
C162        C  0.21339834  0.41412408  0.12102739    -0.12200
C163        C  0.22789741  0.43715246  0.14569294     0.01900
C164        C  0.19644573  0.44409654  0.16997163    -0.00400
C165        C  0.15039948  0.42766489  0.16823274    -0.12200
C166        C  0.13592001  0.40452538  0.14360396     0.01800
H167        H  0.23958878  0.40972773  0.10379193     0.14800
H168        H  0.12580331  0.43246416  0.18674169     0.14800
C169        C  0.08855314  0.38836976  0.14448006     0.36400
C170        C  0.27551520  0.45315239  0.14503550     0.36300
N171        N  0.05063406  0.37542056  0.14516634    -0.43900
N172        N  0.31371917  0.46583593  0.14442112    -0.43900
C173        C  0.44825889  0.34827077  0.46482303    -0.00300
C174        C  0.47417324  0.37571213  0.47389585    -0.12200
C175        C  0.02122517  0.37777735  0.49889331     0.01900
C176        C  0.03318967  0.35153743  0.01803374    -0.00400
C177        C  0.00723983  0.32453324  0.00886429    -0.12200
C178        C  0.46377545  0.32192084  0.98090416     0.01800
H179        H  0.45829557  0.39589971  0.46143204     0.14800
H180        H  0.02157680  0.30509883  0.02322543     0.14800
C181        C  0.44784080  0.29232503  0.96873059     0.36400
C182        C  0.04902324  0.40578827  0.50242032     0.36300
N183        N  0.43620091  0.26833537  0.95937468    -0.43900
N184        N  0.07127148  0.42823746  0.50496518    -0.43900
C185        C  0.20318151  0.33397708  0.01654558    -0.00300
C186        C  0.25739348  0.33393937  0.02712179    -0.12200
C187        C  0.28891347  0.33358049  0.00210656     0.01900
C188        C  0.27473858  0.33418229  0.46714590    -0.00400
C189        C  0.22057690  0.33211915  0.45647582    -0.12200
C190        C  0.18882782  0.33282099  0.48143272     0.01800
H191        H  0.27536469  0.33603919  0.05523036     0.14800
H192        H  0.20284508  0.33141196  0.42824296     0.14800
C193        C  0.13369614  0.33319069  0.46777170     0.36400
C194        C  0.34381044  0.33744312  0.01550884     0.36300
N195        N  0.08979369  0.33327758  0.45546875    -0.43900
N196        N  0.38738613  0.34080110  0.02789621    -0.43900
C197        C  0.08183043  0.12168132  0.12292823    -0.00300
C198        C  0.07420367  0.12494769  0.08556812    -0.12200
C199        C  0.05798306  0.10128550  0.06227873     0.01900
C200        C  0.04820798  0.07340867  0.07568411    -0.00400
C201        C  0.05652336  0.06935442  0.11256764    -0.12200
C202        C  0.07376945  0.09296553  0.13619373     0.01800
H203        H  0.07938571  0.14578818  0.07332072     0.14800
H204        H  0.04998766  0.04764067  0.12292480     0.14800
C205        C  0.08227206  0.08703927  0.17396361     0.36400
C206        C  0.54972059  0.10661123  0.02439558     0.36300
N207        N  0.08926756  0.08226787  0.20421663    -0.43900
N208        N  0.54312790  0.11131139  0.99416834    -0.43900
C209        C  0.20380352  0.16994791  0.22762725    -0.00300
C210        C  0.24983674  0.17492666  0.21579330    -0.12200
C211        C  0.29820131  0.17304691  0.23921936     0.01900
C212        C  0.30116096  0.16549639  0.27531250    -0.00400
C213        C  0.25486117  0.16029084  0.28695646    -0.12200
C214        C  0.20648285  0.16298546  0.26369453     0.01800
H215        H  0.24791151  0.17972496  0.18785154     0.14800
H216        H  0.25644869  0.15407681  0.31438322     0.14800
C217        C  0.16037330  0.15779141  0.27735326     0.36400
C218        C  0.34374309  0.17714051  0.22463374     0.36300
N219        N  0.12388899  0.15371181  0.28890907    -0.43900
N220        N  0.37927339  0.18042695  0.21184452    -0.43900
C221        C  0.47167378  0.17516079  0.27694417    -0.00300
C222        C  0.48709864  0.20234373  0.26425739    -0.12200
C223        C  0.01580636  0.20327834  0.23704636     0.01900
C224        C  0.03026491  0.17668233  0.22262619    -0.00400
C225        C  0.01393540  0.14978844  0.23515935    -0.12200
C226        C  0.48401774  0.14874286  0.26086455     0.01800
H227        H  0.47680851  0.22277849  0.27557881     0.14800
H228        H  0.02467464  0.12903302  0.22483599     0.14800
C229        C  0.46485321  0.11991608  0.26882005     0.36400
C230        C  0.02781322  0.23159629  0.22329822     0.36300
N231        N  0.44975493  0.09672686  0.27491099    -0.43900
N232        N  0.03721474  0.25426964  0.21201182    -0.43900
C233        C  0.12933016  0.28709630  0.10548702    -0.00300
C234        C  0.15621539  0.28132579  0.14094762    -0.12200
C235        C  0.14954575  0.25468904  0.15855728     0.01900
C236        C  0.11392265  0.23298231  0.14136668    -0.00400
C237        C  0.08622420  0.23902996  0.10664356    -0.12200
C238        C  0.09671608  0.26397841  0.08779942     0.01800
H239        H  0.18466901  0.29707757  0.15496592     0.14800
H240        H  0.05807144  0.22295482  0.09275489     0.14800
C241        C  0.07876857  0.26177224  0.04974503     0.36400
C242        C  0.18140608  0.25011575  0.19354640     0.36300
N243        N  0.06532268  0.25764542  0.01935046    -0.43900
N244        N  0.20710489  0.24685678  0.22166410    -0.43900
C245        C  0.31283325  0.61959389  0.37359440    -0.00300
C246        C  0.34168398  0.59334839  0.37633995    -0.12200
C247        C  0.32686685  0.56969170  0.35268589     0.01900
C248        C  0.28126532  0.57119811  0.32623354    -0.00400
C249        C  0.25074128  0.59634555  0.32418825    -0.12200
C250        C  0.26606323  0.62043766  0.34726882     0.01800
H251        H  0.37546786  0.59025136  0.39716419     0.14800
H252        H  0.21544630  0.59750887  0.30379346     0.14800
C253        C  0.23289690  0.64578799  0.34303033     0.31800
C254        C  0.35836896  0.54361915  0.35684464     0.36300
N255        N  0.20639090  0.66612043  0.33946587    -0.43900
N256        N  0.38352758  0.52273026  0.36009531    -0.43900
C257        C  0.46013287  0.93940192  0.42798004    -0.00300
C258        C  0.41899540  0.92012355  0.43072423    -0.12200
C259        C  0.40569971  0.89576850  0.40767981     0.01900
C260        C  0.43398334  0.88990290  0.38088141    -0.00400
C261        C  0.47447976  0.90991105  0.37796951    -0.12200
C262        C  0.48767359  0.93414487  0.40093004     0.01800
H263        H  0.39728357  0.92386926  0.45127238     0.14800
H264        H  0.49598550  0.90787147  0.35732909     0.14800
C265        C  0.52890429  0.95363984  0.39498131     0.36400
C266        C  0.36214972  0.87748193  0.41205272     0.36300
N267        N  0.56208521  0.96897433  0.38994510    -0.43900
N268        N  0.32720577  0.86293228  0.41566398    -0.43900
C269        C  0.38344150  0.78211947  0.36061144    -0.00300
C270        C  0.42106746  0.76033437  0.36840063    -0.12200
C271        C  0.40987522  0.73324630  0.38307162     0.01900
C272        C  0.36049396  0.72789757  0.39052016    -0.00400
C273        C  0.32285334  0.74962808  0.38267350    -0.12200
C274        C  0.33391278  0.77663686  0.36779220     0.01800
H275        H  0.45928440  0.76459848  0.36324678     0.14800
H276        H  0.28466059  0.74535340  0.38787182     0.14800
C277        C  0.29391903  0.79842986  0.36039245     0.36400
C278        C  0.44949052  0.71119197  0.39012558     0.36300
N279        N  0.26156560  0.81573441  0.35451376    -0.43900
N280        N  0.48117614  0.69347884  0.39572037    -0.43900
C281        C  0.17091566  0.62215245  0.13039638    -0.00300
C282        C  0.13735304  0.59736883  0.12984609    -0.12200
C283        C  0.15021670  0.57383027  0.15324951     0.01900
C284        C  0.19817430  0.57406772  0.17752748    -0.00400
C285        C  0.23293486  0.59779497  0.17746909    -0.12200
C286        C  0.21988451  0.62167093  0.15437700     0.01800
H287        H  0.10131944  0.59508649  0.11073537     0.14800
H288        H  0.27025150  0.59787904  0.19591188     0.14800
C289        C  0.25803558  0.64516207  0.15566878     0.36400
C290        C  0.11430452  0.54900018  0.15053093     0.36300
N291        N  0.28866624  0.66392954  0.15668385    -0.43900
N292        N  0.08557014  0.52912931  0.14830958    -0.43900
C293        C  0.44423254  0.66780759  0.47664970    -0.00300
C294        C  0.46813891  0.69530141  0.48759780    -0.12200
C295        C  0.01657329  0.69689564  0.01561062     0.01900
C296        C  0.04057895  0.67071899  0.03043885    -0.00400
C297        C  0.01656361  0.64338099  0.01880502    -0.12200
C298        C  0.46687783  0.64194420  0.49335784     0.01800
H299        H  0.45119452  0.71543955  0.47552865     0.14800
H300        H  0.03423533  0.62281598  0.02885628     0.14800
C301        C  0.44217860  0.61302533  0.48770772     0.36400
C302        C  0.03520719  0.72597424  0.02826297     0.36300
N303        N  0.42283817  0.58975562  0.48341240    -0.43900
N304        N  0.04949706  0.74949311  0.03811407    -0.43900
C305        C  0.21207080  0.67872746  0.02704424    -0.00300
C306        C  0.26588468  0.68222575  0.03788776    -0.12200
C307        C  0.29779184  0.68252216  0.01304983     0.01900
C308        C  0.27215236  0.68035524  0.47408993    -0.00400
C309        C  0.21786130  0.67870725  0.46338675    -0.12200
C310        C  0.18614320  0.67889018  0.48840249     0.01800
H311        H  0.28324120  0.68363836  0.06615931     0.14800
H312        H  0.20013785  0.67614402  0.43529785     0.14800
C313        C  0.13105653  0.67541138  0.47537264     0.36400
C314        C  0.35279448  0.68464819  0.02694064     0.36300
N315        N  0.08713393  0.67264146  0.46374294    -0.43900
N316        N  0.39647631  0.68664917  0.03968427    -0.43900
C317        C  0.04591277  0.94155028  0.07778750    -0.00300
C318        C  0.01343588  0.91661861  0.07654631    -0.12200
C319        C  0.02744526  0.89286389  0.09967618     0.01900
C320        C  0.07497106  0.89374877  0.12533280    -0.00400
C321        C  0.10659714  0.91950488  0.12685698    -0.12200
C322        C  0.09269464  0.94300283  0.10330484     0.01800
H323        H  0.47724309  0.91546018  0.05690786     0.14800
H324        H  0.14201327  0.92231162  0.14650397     0.14800
C325        C  0.12604691  0.96900942  0.10694283     0.36400
C326        C  0.49198460  0.86780594  0.09629492     0.36300
N327        N  0.15257069  0.98990619  0.10989812    -0.43900
N328        N  0.46370952  0.84768617  0.09357136    -0.43900
C329        C  0.20261699  0.84479309  0.22788783    -0.00300
C330        C  0.22518023  0.87172585  0.24237180    -0.12200
C331        C  0.27258738  0.87290135  0.26660054     0.01900
C332        C  0.29642893  0.84641109  0.28053620    -0.00400
C333        C  0.27258691  0.81935026  0.26750016    -0.12200
C334        C  0.22777275  0.81827340  0.24035983     0.01800
H335        H  0.20650064  0.89243611  0.23412792     0.14800
H336        H  0.28943347  0.79868160  0.27782699     0.14800
C337        C  0.21062255  0.78959840  0.22540134     0.36400
C338        C  0.29692801  0.90175685  0.27385365     0.36300
N339        N  0.19775562  0.76630374  0.21395159    -0.43900
N340        N  0.31607948  0.92500590  0.27925066    -0.43900
C341        C  0.46485122  0.82971296  0.27474614    -0.00300
C342        C  0.01837819  0.82575134  0.28512530    -0.12200
C343        C  0.05036856  0.82720034  0.26042790     0.01900
C344        C  0.02868537  0.83203222  0.22392043    -0.00400
C345        C  0.47449324  0.83347392  0.21313935    -0.12200
C346        C  0.44258995  0.83257130  0.23807877     0.01800
H347        H  0.03579306  0.82356396  0.31326938     0.14800
H348        H  0.45713090  0.83680697  0.18519276     0.14800
C349        C  0.38801933  0.83718217  0.22524314     0.36400
C350        C  0.10531253  0.82663477  0.27464824     0.36300
N351        N  0.34455047  0.84100571  0.21373964    -0.43900
N352        N  0.14886883  0.82614203  0.28786647    -0.43900
C353        C  0.13629955  0.73054200  0.11298657    -0.00300
C354        C  0.16886058  0.75490597  0.11098956    -0.12200
C355        C  0.15901454  0.78241860  0.12472201     0.01900
C356        C  0.11549303  0.78573688  0.14023332    -0.00400
C357        C  0.08308764  0.76135694  0.14231495    -0.12200
C358        C  0.09300614  0.73385958  0.12872255     0.01800
H359        H  0.20248906  0.75226412  0.09938386     0.14800
H360        H  0.04963884  0.76393288  0.15413269     0.14800
C361        C  0.05765627  0.70948259  0.13058203     0.36400
C362        C  0.19516922  0.80661348  0.12396107     0.36300
N363        N  0.02937274  0.68991886  0.13202286    -0.43900
N364        N  0.22425232  0.82598349  0.12358941    -0.43900
C365        C  0.08938053  0.86836198  0.65156007     0.86300
C366        C  0.05021108  0.86394847  0.67564866    -0.53900
C367        C  0.05929915  0.84026654  0.69807198     0.09200
C368        C  0.10764586  0.82296762  0.69442579     0.20200
C369        C  0.14226523  0.86979079  0.67805129    -0.54700
C370        C  0.15205338  0.84624123  0.70080081     0.09300
C371        C  0.09040840  0.83878233  0.63239000    -0.54200
C372        C  0.10040153  0.81516763  0.65452193     0.09900
H373        H  0.01855696  0.87892869  0.67554792     0.14400
H374        H  0.11372399  0.80346408  0.71203769     0.00200
H375        H  0.17075799  0.88724770  0.67890892     0.14700
H376        H  0.08668771  0.83689099  0.60371347     0.14500
C377        C  0.15481025  0.64921473  0.60331744     0.86300
C378        C  0.15805452  0.67946255  0.62169509    -0.53900
C379        C  0.14611088  0.70257605  0.59881239     0.09200
C380        C  0.13290011  0.69346255  0.55900453     0.20200
C381        C  0.09921498  0.64840587  0.58041630    -0.54700
C382        C  0.08775895  0.67096666  0.55646475     0.09300
C383        C  0.18973447  0.65193211  0.57627373    -0.54200
C384        C  0.17862686  0.67494238  0.55319814     0.09900
H385        H  0.16502633  0.68216264  0.65047897     0.14400
H386        H  0.12562511  0.71228257  0.54035609     0.00200
H387        H  0.06957761  0.63261367  0.58360494     0.14700
H388        H  0.22063020  0.63665981  0.57527528     0.14500
C389        C  0.41638395  0.86427355  0.85578022     0.86300
C390        C  0.45050574  0.85956845  0.82825384    -0.53900
C391        C  0.43398449  0.83738751  0.80423848     0.09200
C392        C  0.38482254  0.82123497  0.81003442     0.20200
C393        C  0.36153365  0.86783596  0.83333971    -0.54700
C394        C  0.34492613  0.84598840  0.80857612     0.09300
C395        C  0.41503585  0.83386351  0.87313615    -0.54200
C396        C  0.39738467  0.81148880  0.84954369     0.09900
H397        H  0.48557458  0.87179849  0.82720702     0.14400
H398        H  0.37284601  0.80271384  0.79093680     0.00200
H399        H  0.33759542  0.88589298  0.83818024     0.14700
H400        H  0.42434135  0.83049618  0.90179197     0.14500
C401        C  0.33293319  0.64545383  0.90089924     0.86300
C402        C  0.33546498  0.67532167  0.88252132    -0.53900
C403        C  0.34824240  0.69862683  0.90549877     0.09200
C404        C  0.35663762  0.69015606  0.94526281     0.20200
C405        C  0.38676367  0.64379207  0.92585511    -0.54700
C406        C  0.39854733  0.66645024  0.94996376     0.09300
C407        C  0.29552042  0.64962700  0.92598557    -0.54200
C408        C  0.30731795  0.67294851  0.94913143     0.09900
H409        H  0.33063361  0.67762464  0.85383146     0.14400
H410        H  0.36601520  0.70938336  0.96363350     0.00200
H411        H  0.41542126  0.62765268  0.92366481     0.14700
H412        H  0.26279876  0.63472714  0.92591030     0.14500
C413        C  0.08733130  0.14988199  0.64642371     0.86300
C414        C  0.09464985  0.18016806  0.63029846    -0.53900
C415        C  0.10235774  0.20347751  0.65381037     0.09200
C416        C  0.10434858  0.19348010  0.69299612     0.20200
C417        C  0.13693861  0.14690139  0.67519156    -0.54700
C418        C  0.14608957  0.16942608  0.69955598     0.09300
C419        C  0.04392995  0.15442009  0.66646499    -0.54200
C420        C  0.05279919  0.17618900  0.69200083     0.09900
H421        H  0.09799336  0.18320981  0.60303246     0.14400
H422        H  0.11205019  0.21132924  0.71325443     0.00200
H423        H  0.16360642  0.12885164  0.67565939     0.14700
H424        H  0.00957687  0.14021033  0.66165110     0.14500
C425        C  0.15865018  0.37208925  0.59379404     0.86300
C426        C  0.19568004  0.36596433  0.56862515    -0.53900
C427        C  0.18090462  0.34288269  0.54560248     0.09200
C428        C  0.13040891  0.32749029  0.55015385     0.20200
C429        C  0.10566252  0.37558700  0.56896527    -0.54700
C430        C  0.09065455  0.35272498  0.54569450     0.09300
C431        C  0.15499980  0.34237260  0.61239043    -0.54200
C432        C  0.13997272  0.31837000  0.59027595     0.09900
H433        H  0.23061088  0.37838924  0.56787533     0.14400
H434        H  0.11961634  0.30961443  0.53049436     0.00200
H435        H  0.08175901  0.39462031  0.57029668     0.14700
H436        H  0.16208386  0.34127476  0.64119988     0.14500
C437        C  0.40619880  0.14387504  0.85154565     0.86300
C438        C  0.40049724  0.17325642  0.86989294    -0.53900
C439        C  0.38838916  0.19643870  0.84710495     0.09200
C440        C  0.38396041  0.18835607  0.80733554     0.20200
C441        C  0.35478475  0.13981378  0.82342217    -0.54700
C442        C  0.34272850  0.16336880  0.80076154     0.09300
C443        C  0.44623284  0.15043764  0.82860134    -0.54200
C444        C  0.43457993  0.17284842  0.80481048     0.09900
H445        H  0.40417889  0.17538927  0.89853354     0.14400
H446        H  0.37441224  0.20738249  0.78901861     0.00200
H447        H  0.32986788  0.12030610  0.82153236     0.14700
H448        H  0.47863043  0.13637726  0.82773408     0.14500
C449        C  0.32157571  0.36417472  0.88789922     0.86300
C450        C  0.28356368  0.35947614  0.91254508    -0.53900
C451        C  0.29691593  0.33798558  0.93741120     0.09200
C452        C  0.34697686  0.32213206  0.93471043     0.20200
C453        C  0.37506713  0.36863356  0.91280363    -0.54700
C454        C  0.38906010  0.34685321  0.93768818     0.09300
C455        C  0.32504917  0.33342668  0.87127676    -0.54200
C456        C  0.33902686  0.31158132  0.89563970     0.09900
H457        H  0.24948782  0.37284518  0.91114171     0.14400
H458        H  0.35505820  0.30414171  0.95437679     0.00200
H459        H  0.39999590  0.38732317  0.90976669     0.14700
H460        H  0.32005859  0.32861917  0.84314393     0.14500
O461        O  0.18041057  0.54014805  0.71824436    -0.73100
O462        O  0.22035896  0.47579096  0.78954488    -0.74100
O463        O  0.22103765  0.53881670  0.79221901    -0.62700
O464        O  0.17951176  0.47758372  0.71521157    -0.71100
O465        O  0.25833823  0.48026788  0.70427418    -0.70700
O466        O  0.30139142  0.53846807  0.78349890    -0.62000
O467        O  0.29907148  0.47590789  0.77772604    -0.74500
O468        O  0.26076606  0.54281862  0.70971471    -0.73200
Cu469      Cu  0.19751906  0.50805638  0.75422408     1.04600
Cu470      Cu  0.28267908  0.50943347  0.74351513     1.04300
C471        C  0.21421829  0.55177543  0.70291149     0.93100
C472        C  0.26565584  0.46518189  0.79400815     0.92200
C473        C  0.26787810  0.54832647  0.79984398     0.84300
C474        C  0.21245948  0.46931221  0.69736432     0.90600
O475        O  0.06295262  0.03959480  0.53178313    -0.73100
O476        O  0.01739581  0.97457799  0.96172084    -0.74100
O477        O  0.01568570  0.03717961  0.95967092    -0.62700
O478        O  0.06534035  0.97680306  0.53355837    -0.71100
O479        O  0.48638892  0.97422538  0.54460610    -0.70700
O480        O  0.43838392  0.03750412  0.97292265    -0.62000
O481        O  0.43840531  0.97410712  0.97254793    -0.74500
O482        O  0.48564385  0.03727713  0.54575489    -0.73200
Cu483      Cu  0.04220167  0.00677228  0.99685247     1.04600
Cu484      Cu  0.46035535  0.00550977  0.50880189     1.04300
C485        C  0.03104646  0.04879274  0.54980923     0.93100
C486        C  0.47129839  0.96402523  0.95569492     0.92200
C487        C  0.47006658  0.04752818  0.95467446     0.84300
C488        C  0.03303220  0.96546311  0.55043538     0.90600
C489        C  0.30675151  0.39056278  0.86283623    -0.00300
C490        C  0.29644567  0.38722743  0.82535159    -0.12200
C491        C  0.28303420  0.41133582  0.80273745     0.01900
C492        C  0.27910276  0.43954150  0.81720302    -0.00400
C493        C  0.28850285  0.44331640  0.85413892    -0.12200
C494        C  0.30258961  0.41936213  0.87696574     0.01800
H495        H  0.29841736  0.36611132  0.81281397     0.14800
H496        H  0.28545546  0.46515707  0.86518393     0.14800
C497        C  0.31256808  0.42517734  0.91489139     0.36400
C498        C  0.27238368  0.40645164  0.76459936     0.36300
N499        N  0.32051306  0.42981699  0.94526256    -0.43900
N500        N  0.26379952  0.40238423  0.73410239    -0.43900
C501        C  0.42133209  0.11843326  0.87853593    -0.00300
C502        C  0.47392507  0.11085369  0.88942480    -0.12200
C503        C  0.49009833  0.08736990  0.91243140     0.01900
C504        C  0.45409099  0.07165684  0.92815072    -0.00400
C505        C  0.40207440  0.08037922  0.91965679    -0.12200
C506        C  0.38559190  0.10347335  0.89554568     0.01800
H507        H  0.50396941  0.12370883  0.88106656     0.14800
H508        H  0.37388778  0.06920869  0.93205403     0.14800
C509        C  0.33195193  0.11153580  0.88982461     0.36400
C510        C  0.04459072  0.08075121  0.91973372     0.36300
N511        N  0.28871273  0.11751687  0.88541340    -0.43900
N512        N  0.08827098  0.07561455  0.92531569    -0.43900
C513        C  0.37512348  0.22578589  0.85968359    -0.00300
C514        C  0.40365130  0.25076954  0.85319768    -0.12200
C515        C  0.39340916  0.27870118  0.86566645     0.01900
C516        C  0.35338778  0.28199565  0.88457994    -0.00400
C517        C  0.32497815  0.25703845  0.89121423    -0.12200
C518        C  0.33522499  0.22908046  0.87875307     0.01800
H519        H  0.43455674  0.24835701  0.83887514     0.14800
H520        H  0.29385279  0.25953891  0.90531992     0.14800
C521        C  0.30259579  0.20443203  0.88447312     0.36400
C522        C  0.42540411  0.30356369  0.85957400     0.36300
N523        N  0.27599169  0.18489165  0.88907880    -0.43900
N524        N  0.45102651  0.32352581  0.85479701    -0.43900
C525        C  0.17205712  0.39833372  0.61996227    -0.00300
C526        C  0.21400553  0.41784486  0.61895288    -0.12200
C527        C  0.22704903  0.44133803  0.64309086     0.01900
C528        C  0.19787138  0.44620305  0.66931304    -0.00400
C529        C  0.15463552  0.42782347  0.66954342    -0.12200
C530        C  0.14139349  0.40433896  0.64530257     0.01800
H531        H  0.23709410  0.41574761  0.59925803     0.14800
H532        H  0.13139089  0.43141714  0.68922041     0.14800
C533        C  0.09587721  0.38679277  0.64729011     0.36400
C534        C  0.27016891  0.46035727  0.63950306     0.36300
N535        N  0.05942980  0.37275990  0.64891652    -0.43900
N536        N  0.30473810  0.47549391  0.63652626    -0.43900
C537        C  0.43986628  0.34763273  0.96448715    -0.00300
C538        C  0.46490238  0.37511759  0.97468760    -0.12200
C539        C  0.01211623  0.37710099  0.99961114     0.01900
C540        C  0.04114789  0.35249701  0.51832797    -0.00400
C541        C  0.01447138  0.32561575  0.51029184    -0.12200
C542        C  0.47122105  0.32272702  0.48233211     0.01800
H543        H  0.44824462  0.39541744  0.96301486     0.14800
H544        H  0.02788839  0.30654399  0.52570992     0.14800
C545        C  0.45435456  0.29293667  0.47165309     0.36400
C546        C  0.03891271  0.40541644  0.00388736     0.36300
N547        N  0.44197236  0.26875952  0.46363902    -0.43900
N548        N  0.06032769  0.42813232  0.00703465    -0.43900
C549        C  0.21133212  0.33533326  0.51823111    -0.00300
C550        C  0.26554696  0.33492807  0.52894241    -0.12200
C551        C  0.29723784  0.33472030  0.50398746     0.01900
C552        C  0.26628134  0.33245782  0.96529418    -0.00400
C553        C  0.21212048  0.32984595  0.95478570    -0.12200
C554        C  0.18050196  0.33065652  0.97986957     0.01800
H555        H  0.28340132  0.33652164  0.55711213     0.14800
H556        H  0.19427840  0.32865367  0.92659374     0.14800
C557        C  0.12528043  0.33023747  0.96649298     0.36400
C558        C  0.35222806  0.33801831  0.51745130     0.36300
N559        N  0.08125539  0.32965722  0.95456074    -0.43900
N560        N  0.39593202  0.34090520  0.52972779    -0.43900
C561        C  0.07548420  0.12307550  0.62092630    -0.00300
C562        C  0.06601833  0.12650048  0.58347814    -0.12200
C563        C  0.05233912  0.10242642  0.56030434     0.01900
C564        C  0.04620603  0.07413869  0.57400122    -0.00400
C565        C  0.05516758  0.07015133  0.61088816    -0.12200
C566        C  0.07016268  0.09409389  0.63434183     0.01800
H567        H  0.06753537  0.14776848  0.57123702     0.14800
H568        H  0.05087575  0.04821140  0.62139417     0.14800
C569        C  0.07954072  0.08814114  0.67213455     0.36400
C570        C  0.54316672  0.10748366  0.52228375     0.36300
N571        N  0.08748223  0.08336331  0.70241281    -0.43900
N572        N  0.53593271  0.11157323  0.49187746    -0.43900
C573        C  0.19524955  0.17108357  0.72675119    -0.00300
C574        C  0.24143983  0.17505212  0.71488909    -0.12200
C575        C  0.28964463  0.17284659  0.73833620     0.01900
C576        C  0.29239738  0.16591006  0.77460080    -0.00400
C577        C  0.24593114  0.16246283  0.78660879    -0.12200
C578        C  0.19760548  0.16525615  0.76310272     0.01800
H579        H  0.23972949  0.17933860  0.68684796     0.14800
H580        H  0.24741827  0.15771153  0.81449235     0.14800
C581        C  0.15113781  0.16122064  0.77667839     0.36400
C582        C  0.33507892  0.17658594  0.72358141     0.36300
N583        N  0.11413299  0.15803288  0.78789232    -0.43900
N584        N  0.37010190  0.17985615  0.71027678    -0.43900
C585        C  0.46133237  0.17498794  0.77410328    -0.00300
C586        C  0.48029586  0.20220786  0.76395447    -0.12200
C587        C  0.00901011  0.20363708  0.73674986     0.01900
C588        C  0.02053340  0.17737133  0.71999108    -0.00400
C589        C  0.00046896  0.15045225  0.73009092    -0.12200
C590        C  0.46982680  0.14917085  0.75538830     0.01800
H591        H  0.47283645  0.22229947  0.77731599     0.14800
H592        H  0.00874844  0.12980255  0.71829080     0.14800
C593        C  0.44568107  0.12095012  0.76027859     0.36400
C594        C  0.02405852  0.23229977  0.72559530     0.36300
N595        N  0.42631952  0.09838742  0.76415211    -0.43900
N596        N  0.03577080  0.25533848  0.71649264    -0.43900
C597        C  0.13201755  0.28788787  0.60550390    -0.00300
C598        C  0.15574416  0.28175958  0.64152178    -0.12200
C599        C  0.14599892  0.25531878  0.65855666     0.01900
C600        C  0.11010551  0.23418982  0.64021929    -0.00400
C601        C  0.08560166  0.24058944  0.60482165    -0.12200
C602        C  0.09941153  0.26521112  0.58668654     0.01800
H603        H  0.18418484  0.29702104  0.65653706     0.14800
H604        H  0.05742023  0.22501080  0.58992933     0.14800
C605        C  0.08461792  0.26308763  0.54842285     0.36400
C606        C  0.17528752  0.25032605  0.69421504     0.36300
N607        N  0.07326597  0.25933685  0.51785621    -0.43900
N608        N  0.19906800  0.24677953  0.72286234    -0.43900
C609        C  0.31578457  0.61951108  0.87490735    -0.00300
C610        C  0.34570453  0.59378495  0.87615055    -0.12200
C611        C  0.33030969  0.57028412  0.85237307     0.01900
C612        C  0.28344545  0.57158364  0.82705545    -0.00400
C613        C  0.25203526  0.59620827  0.82654199    -0.12200
C614        C  0.26767313  0.62004051  0.84992570     0.01800
H615        H  0.38084744  0.59095756  0.89583355     0.14800
H616        H  0.21569211  0.59717968  0.80713316     0.14800
C617        C  0.23321242  0.64471756  0.84766669     0.31800
C618        C  0.36252895  0.54453458  0.85536021     0.36300
N619        N  0.20563589  0.66448305  0.84593522    -0.43900
N620        N  0.38821593  0.52388692  0.85774725    -0.43900
C621        C  0.45673488  0.93953690  0.92952580    -0.00300
C622        C  0.41730466  0.91940411  0.93324560    -0.12200
C623        C  0.40416437  0.89515731  0.91001849     0.01900
C624        C  0.43140639  0.89012232  0.88241404    -0.00400
C625        C  0.46984057  0.91115891  0.87839308    -0.12200
C626        C  0.48249302  0.93543245  0.90131533     0.01800
H627        H  0.39674559  0.92248672  0.95456365     0.14800
H628        H  0.48955683  0.91004855  0.85669790     0.14800
C629        C  0.52056376  0.95652055  0.89390616     0.36400
C630        C  0.36143982  0.87634761  0.91476782     0.36300
N631        N  0.55092299  0.97338862  0.88781991    -0.43900
N632        N  0.32698790  0.86147467  0.91858651    -0.43900
C633        C  0.38377355  0.78213123  0.86228030    -0.00300
C634        C  0.42210271  0.76078659  0.87076479    -0.12200
C635        C  0.41152046  0.73371794  0.88576238     0.01900
C636        C  0.36193999  0.72787714  0.89264912    -0.00400
C637        C  0.32377412  0.74927838  0.88444265    -0.12200
C638        C  0.33436985  0.77635581  0.86952549     0.01800
H639        H  0.46039791  0.76539472  0.86593192     0.14800
H640        H  0.28558686  0.74473509  0.88951088     0.14800
C641        C  0.29422703  0.79807489  0.86255400     0.36400
C642        C  0.45199602  0.71222039  0.89376573     0.36300
N643        N  0.26188525  0.81540369  0.85716439    -0.43900
N644        N  0.48444339  0.69499968  0.90018834    -0.43900
C645        C  0.17041856  0.62346341  0.62927298    -0.00300
C646        C  0.13741227  0.59851662  0.62926216    -0.12200
C647        C  0.15105446  0.57515849  0.65288029     0.01900
C648        C  0.19915166  0.57579238  0.67707778    -0.00400
C649        C  0.23341882  0.59967949  0.67645739    -0.12200
C650        C  0.21969694  0.62330585  0.65297894     0.01800
H651        H  0.10119470  0.59598033  0.61040525     0.14800
H652        H  0.27090180  0.60006408  0.69470407     0.14800
C653        C  0.25757783  0.64683059  0.65352108     0.36400
C654        C  0.11580261  0.55003638  0.65036802     0.36300
N655        N  0.28811254  0.66555860  0.65391590    -0.43900
N656        N  0.08762017  0.52991316  0.64824489    -0.43900
C657        C  0.44735462  0.66757122  0.97775260    -0.00300
C658        C  0.47147602  0.69500822  0.98864339    -0.12200
C659        C  0.01305959  0.69734659  0.51474038     0.01900
C660        C  0.03753961  0.67128369  0.52955786    -0.00400
C661        C  0.01386314  0.64387470  0.51785932    -0.12200
C662        C  0.46953747  0.64163709  0.99444660     0.01800
H663        H  0.45465356  0.71518138  0.97657835     0.14800
H664        H  0.03182857  0.62339038  0.52792571     0.14800
C665        C  0.44410666  0.61289761  0.98905090     0.36400
C666        C  0.03088153  0.72647514  0.52769624     0.36300
N667        N  0.42404206  0.58981157  0.98495823    -0.43900
N668        N  0.04441297  0.75003768  0.53782489    -0.43900
C669        C  0.20871545  0.68048362  0.52516535    -0.00300
C670        C  0.26250955  0.68415837  0.53577824    -0.12200
C671        C  0.29423264  0.68444477  0.51081509     0.01900
C672        C  0.27577339  0.67891607  0.97627225    -0.00400
C673        C  0.22153893  0.67728676  0.96538978    -0.12200
C674        C  0.18968789  0.67717930  0.99026341     0.01800
H675        H  0.28002821  0.68579073  0.56401007     0.14800
H676        H  0.20397864  0.67487862  0.93725127     0.14800
C677        C  0.13471189  0.67326540  0.97705154     0.36400
C678        C  0.34915152  0.68733738  0.52462250     0.36300
N679        N  0.09092092  0.67004931  0.96524049    -0.43900
N680        N  0.39271487  0.69011514  0.53738220    -0.43900
C681        C  0.04886696  0.94138829  0.57623827    -0.00300
C682        C  0.01386972  0.91795766  0.57732315    -0.12200
C683        C  0.02686732  0.89434828  0.60084449     0.01900
C684        C  0.07563887  0.89405992  0.62511699    -0.00400
C685        C  0.11068068  0.91780389  0.62351331    -0.12200
C686        C  0.09788514  0.94105208  0.59937295     0.01800
H687        H  0.47634178  0.91778417  0.55912073     0.14800
H688        H  0.14861147  0.91890844  0.64055585     0.14800
C689        C  0.13535810  0.96478671  0.59977135     0.36400
C690        C  0.48924604  0.87049544  0.59899259     0.36300
N691        N  0.16543065  0.98376237  0.60013635    -0.43900
N692        N  0.45918599  0.85134799  0.59738471    -0.43900
C693        C  0.20054297  0.84494729  0.72925095    -0.00300
C694        C  0.22243677  0.87175669  0.74451218    -0.12200
C695        C  0.26948980  0.87287500  0.76915754     0.01900
C696        C  0.29396920  0.84632408  0.78242366    -0.00400
C697        C  0.27064282  0.81932664  0.76863200    -0.12200
C698        C  0.22586598  0.81840189  0.74138166     0.01800
H699        H  0.20340004  0.89243435  0.73659806     0.14800
H700        H  0.28782485  0.79861592  0.77849896     0.14800
C701        C  0.20870062  0.78986400  0.72601291     0.36400
C702        C  0.29261738  0.90188528  0.77768843     0.36300
N703        N  0.19574301  0.76667842  0.71424466    -0.43900
N704        N  0.31068024  0.92528223  0.78421649    -0.43900
C705        C  0.46263498  0.83103415  0.77560230    -0.00300
C706        C  0.01611095  0.82688438  0.78588577    -0.12200
C707        C  0.04813487  0.82841139  0.76118767     0.01900
C708        C  0.02663771  0.83375435  0.72474385    -0.00400
C709        C  0.47245969  0.83570318  0.71405835    -0.12200
C710        C  0.44048746  0.83447124  0.73900226     0.01800
H711        H  0.03346658  0.82430018  0.81398332     0.14800
H712        H  0.45513982  0.83941295  0.68618608     0.14800
C713        C  0.38586184  0.83902555  0.72632854     0.36400
C714        C  0.10301118  0.82713835  0.77539540     0.36300
N715        N  0.34228714  0.84274075  0.71509363    -0.43900
N716        N  0.14649488  0.82598887  0.78863579    -0.43900
C717        C  0.13352360  0.73161767  0.61210409    -0.00300
C718        C  0.16778201  0.75561345  0.61252301    -0.12200
C719        C  0.15814667  0.78284931  0.62706624     0.01900
C720        C  0.11328366  0.78626122  0.64108560    -0.00400
C721        C  0.07925576  0.76223112  0.64085895    -0.12200
C722        C  0.08896998  0.73499743  0.62646329     0.01800
H723        H  0.20247838  0.75288670  0.60213573     0.14800
H724        H  0.04473383  0.76489100  0.65147079     0.14800
C725        C  0.05227860  0.71091879  0.62621294     0.36400
C726        C  0.19565464  0.80669690  0.62854630     0.36300
N727        N  0.02289204  0.69160443  0.62595587    -0.43900
N728        N  0.22574359  0.82581355  0.63001439    -0.43900
C729        C  0.59004244  0.86775074  0.15101494     0.86300
C730        C  0.55110359  0.86266603  0.17502266    -0.53900
C731        C  0.56104666  0.83900175  0.19730671     0.09200
C732        C  0.60982478  0.82229087  0.19356644     0.20200
C733        C  0.64312038  0.86946676  0.17718422    -0.54700
C734        C  0.65362717  0.84594287  0.19990918     0.09300
C735        C  0.59211793  0.83834164  0.13159482    -0.54200
C736        C  0.60274566  0.81467148  0.15363413     0.09900
H737        H  0.51889515  0.87723685  0.17496516     0.14400
H738        H  0.61629995  0.80277238  0.21111214     0.00200
H739        H  0.67182854  0.88665081  0.17702291     0.14700
H740        H  0.58832735  0.83660133  0.10290373     0.14500
C741        C  0.65638185  0.64800954  0.10458879     0.86300
C742        C  0.66007694  0.67826678  0.12297313    -0.53900
C743        C  0.64889315  0.70140983  0.10003084     0.09200
C744        C  0.63612029  0.69229926  0.06025387     0.20200
C745        C  0.60104508  0.64760230  0.08146298    -0.54700
C746        C  0.59048577  0.67014904  0.05746846     0.09300
C747        C  0.69184306  0.65037507  0.07786894    -0.54200
C748        C  0.68157876  0.67343159  0.05482449     0.09900
H749        H  0.66661777  0.68097135  0.15173987     0.14400
H750        H  0.62953034  0.71111289  0.04156554     0.00200
H751        H  0.57082396  0.63220103  0.08465175     0.14700
H752        H  0.72245162  0.63485687  0.07706323     0.14500
C753        C  0.91848642  0.86405580  0.35423717     0.86300
C754        C  0.95301979  0.85872343  0.32711143    -0.53900
C755        C  0.93622396  0.83649798  0.30321716     0.09200
C756        C  0.88640902  0.82096632  0.30863648     0.20200
C757        C  0.86409717  0.86810832  0.33121567    -0.54700
C758        C  0.84724964  0.84611717  0.30667320     0.09300
C759        C  0.91565033  0.83376601  0.37170996    -0.54200
C760        C  0.89778833  0.81140438  0.34812237     0.09900
H761        H  0.98826575  0.87072095  0.32597402     0.14400
H762        H  0.87424853  0.80242135  0.28960129     0.00200
H763        H  0.84057738  0.88656167  0.33546554     0.14700
H764        H  0.92429442  0.83049478  0.40038389     0.14500
C765        C  0.82980406  0.64575107  0.39937918     0.86300
C766        C  0.83364664  0.67538124  0.38078146    -0.53900
C767        C  0.84636725  0.69880861  0.40355094     0.09200
C768        C  0.85376852  0.69067482  0.44338568     0.20200
C769        C  0.88322594  0.64384323  0.42486897    -0.54700
C770        C  0.89523675  0.66662457  0.44880013     0.09300
C771        C  0.79169332  0.65063249  0.42385703    -0.54200
C772        C  0.80373940  0.67401600  0.44695929     0.09900
H773        H  0.82957868  0.67744933  0.35212125     0.14400
H774        H  0.86321032  0.71005894  0.46148270     0.00200
H775        H  0.91177749  0.62762975  0.42269480     0.14700
H776        H  0.75847804  0.63605910  0.42352739     0.14500
C777        C  0.59448976  0.14850487  0.14833858     0.86300
C778        C  0.60118729  0.17881758  0.13193628    -0.53900
C779        C  0.60924107  0.20216554  0.15533077     0.09200
C780        C  0.61270033  0.19234399  0.19459945     0.20200
C781        C  0.64461044  0.14553941  0.17660457    -0.54700
C782        C  0.65448433  0.16828721  0.20068073     0.09300
C783        C  0.55184034  0.15316447  0.16906352    -0.54200
C784        C  0.56146587  0.17512946  0.19427637     0.09900
H785        H  0.60255448  0.18215335  0.10439057     0.14400
H786        H  0.62062712  0.21032508  0.21473644     0.00200
H787        H  0.67091346  0.12731669  0.17700893     0.14700
H788        H  0.51757106  0.13890439  0.16519247     0.14500
C789        C  0.65248803  0.37132243  0.09264508     0.86300
C790        C  0.68811930  0.36532122  0.06648523    -0.53900
C791        C  0.67307241  0.34195208  0.04395183     0.09200
C792        C  0.62317012  0.32648000  0.04946062     0.20200
C793        C  0.59885605  0.37466622  0.06845138    -0.54700
C794        C  0.58313889  0.35168122  0.04532945     0.09300
C795        C  0.64949518  0.34175366  0.11149900    -0.54200
C796        C  0.63444805  0.31762760  0.08970850     0.09900
H797        H  0.72168011  0.37847496  0.06410683     0.14400
H798        H  0.61208806  0.30837251  0.03013651     0.00200
H799        H  0.57517505  0.39371260  0.07011517     0.14700
H800        H  0.65734336  0.34079004  0.14035621     0.14500
C801        C  0.91380606  0.14543031  0.35350117     0.86300
C802        C  0.90757012  0.17523930  0.37109947    -0.53900
C803        C  0.89544599  0.19792284  0.34749907     0.09200
C804        C  0.89209406  0.18901677  0.30801415     0.20200
C805        C  0.86313374  0.14089696  0.32528528    -0.54700
C806        C  0.85142435  0.16372718  0.30167961     0.09300
C807        C  0.95581737  0.15261624  0.33236649    -0.54200
C808        C  0.94359302  0.17378991  0.30701343     0.09900
H809        H  0.91139040  0.17826769  0.39961730     0.14400
H810        H  0.88270742  0.20767189  0.28912215     0.00200
H811        H  0.83792483  0.12160157  0.32477100     0.14700
H812        H  0.99259908  0.14166368  0.33598906     0.14500
C813        C  0.82931374  0.36482691  0.38896430     0.86300
C814        C  0.79230447  0.36097950  0.41440336    -0.53900
C815        C  0.80550617  0.33956818  0.43932200     0.09200
C816        C  0.85475588  0.32314672  0.43615590     0.20200
C817        C  0.88350458  0.36896321  0.41298355    -0.54700
C818        C  0.89735786  0.34746166  0.43826945     0.09300
C819        C  0.83171972  0.33387848  0.37258755    -0.54200
C820        C  0.84548050  0.31221869  0.39719459     0.09900
H821        H  0.75877256  0.37475380  0.41329049     0.14400
H822        H  0.86252375  0.30526022  0.45593380     0.00200
H823        H  0.90885912  0.38720296  0.40911299     0.14700
H824        H  0.82760234  0.32902570  0.34450600     0.14500
O825        O  0.67889273  0.53831253  0.21831849    -0.73100
O826        O  0.71965445  0.47447800  0.29017998    -0.74100
O827        O  0.71951068  0.53764564  0.29216968    -0.62700
O828        O  0.67833117  0.47572684  0.21583483    -0.71100
O829        O  0.75712792  0.47833551  0.20496439    -0.70700
O830        O  0.79982947  0.53760717  0.28333196    -0.62000
O831        O  0.79846234  0.47515026  0.27846083    -0.74500
O832        O  0.75923336  0.54087767  0.20969045    -0.73200
Cu833      Cu  0.69626204  0.50648748  0.25455789     1.04600
Cu834      Cu  0.78141359  0.50803625  0.24380916     1.04300
C835        C  0.71276416  0.54987715  0.20299708     0.93100
C836        C  0.76530670  0.46431822  0.29482539     0.92200
C837        C  0.76614332  0.54751620  0.29950535     0.84300
C838        C  0.71128102  0.46729678  0.19807078     0.90600
O839        O  0.56251965  0.03890025  0.03280529    -0.73100
O840        O  0.52012045  0.97512067  0.46008370    -0.74100
O841        O  0.51666944  0.03773657  0.45857323    -0.62700
O842        O  0.56279079  0.97638049  0.03497973    -0.71100
O843        O  0.98372736  0.97443068  0.04601273    -0.70700
O844        O  0.93911353  0.03695226  0.47178192    -0.62000
O845        O  0.94127710  0.97373123  0.47108340    -0.74500
O846        O  0.98548458  0.03753319  0.04722490    -0.73200
Cu847      Cu  0.54395106  0.00737323  0.49559187     1.04600
Cu848      Cu  0.95868804  0.00589775  0.01016177     1.04300
C849        C  0.53134732  0.04842772  0.05118135     0.93100
C850        C  0.97433948  0.96406719  0.45409483     0.92200
C851        C  0.97040801  0.04717086  0.45339933     0.84300
C852        C  0.53021613  0.96542607  0.05188249     0.90600
C853        C  0.81344382  0.39093206  0.36381239    -0.00300
C854        C  0.79655176  0.38671376  0.32665304    -0.12200
C855        C  0.78033913  0.41042581  0.30400642     0.01900
C856        C  0.77977971  0.43901654  0.31822869    -0.00400
C857        C  0.79570541  0.44367662  0.35489897    -0.12200
C858        C  0.81265126  0.42012267  0.37770535     0.01800
H859        H  0.79481803  0.36513096  0.31453613     0.14800
H860        H  0.79559361  0.46587488  0.36567278     0.14800
C861        C  0.82918651  0.42675811  0.41532376     0.36400
C862        C  0.76404125  0.40483938  0.26612859     0.36300
N863        N  0.84276173  0.43206431  0.44542350    -0.43900
N864        N  0.75112665  0.40023057  0.23583077    -0.43900
C865        C  0.92560823  0.11877556  0.37884462    -0.00300
C866        C  0.96142564  0.09745862  0.37308149    -0.12200
C867        C  0.97590249  0.07403303  0.39650694     0.01900
C868        C  0.95334908  0.07046596  0.42637484    -0.00400
C869        C  0.91369367  0.08960544  0.43037041    -0.12200
C870        C  0.89900492  0.11312133  0.40667686     0.01800
H871        H  0.97768388  0.09802821  0.34960739     0.14800
H872        H  0.89430216  0.08639406  0.45232784     0.14800
C873        C  0.85548561  0.13030589  0.41125391     0.36400
C874        C  0.51259968  0.05334609  0.38811304     0.36300
N875        N  0.82030121  0.14365204  0.41534366    -0.43900
N876        N  0.54199693  0.03690989  0.38112805    -0.43900
C877        C  0.88167215  0.22735563  0.35933355    -0.00300
C878        C  0.91706786  0.25102967  0.36123153    -0.12200
C879        C  0.90666792  0.27860840  0.37468672     0.01900
C880        C  0.86004039  0.28272757  0.38631057    -0.00400
C881        C  0.82477257  0.25913043  0.38445753    -0.12200
C882        C  0.83512899  0.23158145  0.37108811     0.01800
H883        H  0.95315525  0.24781934  0.35272848     0.14800
H884        H  0.78860174  0.26242479  0.39283384     0.14800
C885        C  0.79649740  0.20838324  0.36898094     0.36400
C886        C  0.94472553  0.30223753  0.37698951     0.36300
N887        N  0.76441476  0.19043909  0.36763572    -0.43900
N888        N  0.97529373  0.32116255  0.37908796    -0.43900
C889        C  0.66748624  0.39722603  0.11926376    -0.00300
C890        C  0.71339935  0.41412313  0.12102861    -0.12200
C891        C  0.72789784  0.43715196  0.14569364     0.01900
C892        C  0.69644506  0.44409689  0.16997131    -0.00400
C893        C  0.65039855  0.42766543  0.16823220    -0.12200
C894        C  0.63591968  0.40452545  0.14360400     0.01800
H895        H  0.73959062  0.40972603  0.10379414     0.14800
H896        H  0.62580174  0.43246516  0.18674054     0.14800
C897        C  0.58855268  0.38836993  0.14448006     0.36400
C898        C  0.77551627  0.45315141  0.14503673     0.36300
N899        N  0.55063353  0.37542080  0.14516631    -0.43900
N900        N  0.81372075  0.46583458  0.14442278    -0.43900
C901        C  0.94825762  0.34826982  0.46482001    -0.00300
C902        C  0.97417086  0.37571128  0.47389399    -0.12200
C903        C  0.52122818  0.37777815  0.49889459     0.01900
C904        C  0.53319042  0.35153768  0.01803391    -0.00400
C905        C  0.50724022  0.32453369  0.00886390    -0.12200
C906        C  0.96377484  0.32191992  0.98090475     0.01800
H907        H  0.95829258  0.39589896  0.46143068     0.14800
H908        H  0.52157675  0.30509913  0.02322467     0.14800
C909        C  0.94784018  0.29232391  0.96873203     0.36400
C910        C  0.54902754  0.40578864  0.50242031     0.36300
N911        N  0.93620024  0.26833410  0.95937680    -0.43900
N912        N  0.57127698  0.42823742  0.50496414    -0.43900
C913        C  0.70318175  0.33397632  0.01654640    -0.00300
C914        C  0.75739377  0.33393890  0.02712236    -0.12200
C915        C  0.78891354  0.33358004  0.00210696     0.01900
C916        C  0.77473819  0.33418163  0.46714411    -0.00400
C917        C  0.72057632  0.33212005  0.45647440    -0.12200
C918        C  0.68882792  0.33282188  0.48143168     0.01800
H919        H  0.77536522  0.33603912  0.05523087     0.14800
H920        H  0.70284391  0.33141416  0.42824157     0.14800
C921        C  0.63369620  0.33319341  0.46777126     0.36400
C922        C  0.84381032  0.33744407  0.01550889     0.36300
N923        N  0.58979366  0.33328181  0.45546879    -0.43900
N924        N  0.88738577  0.34080343  0.02789608    -0.43900
C925        C  0.58182857  0.12168188  0.12292811    -0.00300
C926        C  0.57420105  0.12494886  0.08556801    -0.12200
C927        C  0.55798243  0.10128675  0.06227813     0.01900
C928        C  0.54820952  0.07340942  0.07568307    -0.00400
C929        C  0.55652507  0.06935464  0.11256650    -0.12200
C930        C  0.57376942  0.09296563  0.13619306     0.01800
H931        H  0.57938102  0.14578998  0.07332083     0.14800
H932        H  0.54999061  0.04764048  0.12292325     0.14800
C933        C  0.58227221  0.08703877  0.17396280     0.36400
C934        C  0.04972130  0.10660958  0.02439616     0.36300
N935        N  0.58926783  0.08226684  0.20421570    -0.43900
N936        N  0.04312857  0.11130964  0.99416891    -0.43900
C937        C  0.70380311  0.16994709  0.22762708    -0.00300
C938        C  0.74983534  0.17492744  0.21579248    -0.12200
C939        C  0.79820062  0.17304733  0.23921752     0.01900
C940        C  0.80116200  0.16549493  0.27531029    -0.00400
C941        C  0.75486319  0.16028784  0.28695495    -0.12200
C942        C  0.70648410  0.16298253  0.26369398     0.01800
H943        H  0.74790879  0.17972727  0.18785093     0.14800
H944        H  0.75645212  0.15407274  0.31438160     0.14800
C945        C  0.66037554  0.15778641  0.27735319     0.36400
C946        C  0.84374140  0.17714272  0.22463120     0.36300
N947        N  0.62389204  0.15370504  0.28890936    -0.43900
N948        N  0.87927089  0.18043066  0.21184146    -0.43900
C949        C  0.97167239  0.17516306  0.27694108    -0.00300
C950        C  0.98709816  0.20234574  0.26425423    -0.12200
C951        C  0.51580661  0.20327691  0.23704938     0.01900
C952        C  0.53026569  0.17668122  0.22262881    -0.00400
C953        C  0.51393777  0.14978706  0.23516221    -0.12200
C954        C  0.98401494  0.14874485  0.26086141     0.01800
H955        H  0.97680894  0.22278070  0.27557570     0.14800
H956        H  0.52467757  0.12903189  0.22483852     0.14800
C957        C  0.96484958  0.11991840  0.26881747     0.36400
C958        C  0.52781235  0.23159512  0.22330138     0.36300
N959        N  0.94975060  0.09672960  0.27490939    -0.43900
N960        N  0.53721296  0.25426871  0.21201516    -0.43900
C961        C  0.62932926  0.28709604  0.10548814    -0.00300
C962        C  0.65621533  0.28132538  0.14094852    -0.12200
C963        C  0.64954551  0.25468868  0.15855831     0.01900
C964        C  0.61392100  0.23298242  0.14136828    -0.00400
C965        C  0.58622152  0.23903036  0.10664550    -0.12200
C966        C  0.59671386  0.26397850  0.08780103     0.01800
H967        H  0.68466978  0.29707692  0.15496637     0.14800
H968        H  0.55806788  0.22295548  0.09275723     0.14800
C969        C  0.57876586  0.26177217  0.04974670     0.36400
C970        C  0.68140729  0.25011480  0.19354682     0.36300
N971        N  0.56531969  0.25764504  0.01935221    -0.43900
N972        N  0.70710736  0.24685525  0.22166397    -0.43900
C973        C  0.81282836  0.61959523  0.37359351    -0.00300
C974        C  0.84167892  0.59334965  0.37633944    -0.12200
C975        C  0.82686196  0.56969286  0.35268550     0.01900
C976        C  0.78126067  0.57119919  0.32623296    -0.00400
C977        C  0.75073639  0.59634657  0.32418757    -0.12200
C978        C  0.76605819  0.62043878  0.34726808     0.01800
H979        H  0.87546247  0.59025258  0.39716383     0.14800
H980        H  0.71544143  0.59750976  0.30379280     0.14800
C981        C  0.73289148  0.64578895  0.34302983     0.31800
C982        C  0.85836411  0.54362032  0.35684457     0.36300
N983        N  0.70638514  0.66612124  0.33946570    -0.43900
N984        N  0.88352281  0.52273146  0.36009552    -0.43900
C985        C  0.96013306  0.93940322  0.42797990    -0.00300
C986        C  0.91899849  0.92012339  0.43072608    -0.12200
C987        C  0.90570235  0.89576861  0.40768127     0.01900
C988        C  0.93398328  0.88990449  0.38088092    -0.00400
C989        C  0.97447543  0.90991476  0.37796622    -0.12200
C990        C  0.98766968  0.93414835  0.40092715     0.01800
H991        H  0.89728928  0.92386781  0.45127600     0.14800
H992        H  0.99597629  0.90787730  0.35732265     0.14800
C993        C  0.02889550  0.95364578  0.39497572     0.36400
C994        C  0.86215440  0.87748098  0.41205566     0.36300
N995        N  0.06207238  0.96898236  0.38993732    -0.43900
N996        N  0.82721212  0.86293044  0.41566818    -0.43900
C997        C  0.88343994  0.78212107  0.36060991    -0.00300
C998        C  0.92106535  0.76033567  0.36839904    -0.12200
C999        C  0.90987243  0.73324763  0.38306979     0.01900
C1000       C  0.86049083  0.72789908  0.39051786    -0.00400
C1001       C  0.82285067  0.74962985  0.38267116    -0.12200
C1002       C  0.83391094  0.77663873  0.36779038     0.01800
H1003       H  0.95928255  0.76459960  0.36324551     0.14800
H1004       H  0.78465774  0.74535541  0.38786932     0.14800
C1005       C  0.79391799  0.79843223  0.36039128     0.36400
C1006       C  0.94948762  0.71119328  0.39012431     0.36300
N1007       N  0.76156526  0.81573725  0.35451322    -0.43900
N1008       N  0.98117333  0.69348022  0.39571964    -0.43900
C1009       C  0.67091196  0.62215388  0.13039600    -0.00300
C1010       C  0.63734819  0.59737096  0.12984710    -0.12200
C1011       C  0.65021202  0.57383237  0.15325046     0.01900
C1012       C  0.69817084  0.57406902  0.17752707    -0.00400
C1013       C  0.73293199  0.59779586  0.17746781    -0.12200
C1014       C  0.71988138  0.62167196  0.15437593     0.01800
H1015       H  0.60131308  0.59508928  0.11073797     0.14800
H1016       H  0.77024925  0.59787959  0.19590987     0.14800
C1017       C  0.75803254  0.64516304  0.15566748     0.36400
C1018       C  0.61429818  0.54900319  0.15053343     0.36300
N1019       N  0.78866312  0.66393051  0.15668234    -0.43900
N1020       N  0.58556239  0.52913310  0.14831341    -0.43900
C1021       C  0.94422976  0.66780889  0.47664724    -0.00300
C1022       C  0.96813741  0.69530249  0.48759475    -0.12200
C1023       C  0.51657069  0.69689725  0.01561028     0.01900
C1024       C  0.54057781  0.67072059  0.03043702    -0.00400
C1025       C  0.51656536  0.64338246  0.01880075    -0.12200
C1026       C  0.96687413  0.64194536  0.49335558     0.01800
H1027       H  0.95119367  0.71544070  0.47552541     0.14800
H1028       H  0.53423867  0.62281756  0.02885092     0.14800
C1029       C  0.94217348  0.61302683  0.48770604     0.36400
C1030       C  0.53520171  0.72597562  0.02826554     0.36300
N1031       N  0.92283182  0.58975742  0.48341115    -0.43900
N1032       N  0.54948918  0.74949427  0.03811914    -0.43900
C1033       C  0.71206901  0.67873011  0.02704498    -0.00300
C1034       C  0.76588295  0.68222805  0.03788873    -0.12200
C1035       C  0.79779051  0.68252369  0.01305102     0.01900
C1036       C  0.77215090  0.68035767  0.47408937    -0.00400
C1037       C  0.71785976  0.67870991  0.46338693    -0.12200
C1038       C  0.68614263  0.67889247  0.48840328     0.01800
H1039       H  0.78323918  0.68364081  0.06616027     0.14800
H1040       H  0.70013549  0.67614696  0.43529813     0.14800
C1041       C  0.63105583  0.67541364  0.47537412     0.36400
C1042       C  0.85279314  0.68464928  0.02694210     0.36300
N1043       N  0.58713312  0.67264369  0.46374484    -0.43900
N1044       N  0.89647501  0.68664995  0.03968575    -0.43900
C1045       C  0.54591267  0.94155192  0.07778699    -0.00300
C1046       C  0.51343363  0.91662141  0.07654802    -0.12200
C1047       C  0.52744263  0.89286690  0.09967832     0.01900
C1048       C  0.57497001  0.89375094  0.12533331    -0.00400
C1049       C  0.60659846  0.91950589  0.12685519    -0.12200
C1050       C  0.59269638  0.94300356  0.10330259     0.01800
H1051       H  0.97724666  0.91545675  0.05690483     0.14800
H1052       H  0.64201650  0.92231187  0.14650033     0.14800
C1053       C  0.62605147  0.96900889  0.10693828     0.36400
C1054       C  0.99198929  0.86780185  0.09629068     0.36300
N1055       N  0.65257764  0.98990461  0.10989174    -0.43900
N1056       N  0.96371593  0.84768118  0.09356528    -0.43900
C1057       C  0.70261665  0.84479513  0.22788772    -0.00300
C1058       C  0.72518024  0.87172791  0.24237143    -0.12200
C1059       C  0.77258764  0.87290341  0.26659992     0.01900
C1060       C  0.79642919  0.84641315  0.28053552    -0.00400
C1061       C  0.77258690  0.81935232  0.26749972    -0.12200
C1062       C  0.72777235  0.81827544  0.24035973     0.01800
H1063       H  0.70650066  0.89243822  0.23412763     0.14800
H1064       H  0.78943345  0.79868365  0.27782658     0.14800
C1065       C  0.71062163  0.78960040  0.22540159     0.36400
C1066       C  0.79692847  0.90175887  0.27385295     0.36300
N1067       N  0.69775421  0.76630574  0.21395210    -0.43900
N1068       N  0.81608009  0.92500789  0.27924989    -0.43900
C1069       C  0.96485193  0.82971433  0.27474584    -0.00300
C1070       C  0.51837770  0.82575079  0.28512561    -0.12200
C1071       C  0.55036822  0.82720144  0.26042845     0.01900
C1072       C  0.52868495  0.83203387  0.22392115    -0.00400
C1073       C  0.97449372  0.83347316  0.21313880    -0.12200
C1074       C  0.94259065  0.83257209  0.23807839     0.01800
H1075       H  0.53579257  0.82356312  0.31326966     0.14800
H1076       H  0.95713135  0.83680583  0.18519216     0.14800
C1077       C  0.88802039  0.83718418  0.22524279     0.36400
C1078       C  0.60531228  0.82663729  0.27464894     0.36300
N1079       N  0.84455184  0.84100878  0.21373934    -0.43900
N1080       N  0.64886866  0.82614579  0.28786717    -0.43900
C1081       C  0.63629577  0.73054354  0.11298751    -0.00300
C1082       C  0.66885549  0.75490769  0.11098849    -0.12200
C1083       C  0.65901008  0.78242045  0.12472086     0.01900
C1084       C  0.61549012  0.78573881  0.14023375    -0.00400
C1085       C  0.58308607  0.76135868  0.14231750    -0.12200
C1086       C  0.59300422  0.73386110  0.12872547     0.01800
H1087       H  0.70248268  0.75226585  0.09938141     0.14800
H1088       H  0.54963863  0.76393463  0.15413669     0.14800
C1089       C  0.55765577  0.70948388  0.13058729     0.36400
C1090       C  0.69516420  0.80661535  0.12395849     0.36300
N1091       N  0.52937345  0.68991996  0.13203010    -0.43900
N1092       N  0.72424693  0.82598536  0.12358580    -0.43900
C1093       C  0.58938307  0.86836180  0.65155945     0.86300
C1094       C  0.55021434  0.86394983  0.67564885    -0.53900
C1095       C  0.55930175  0.84026825  0.69807264     0.09200
C1096       C  0.60764743  0.82296836  0.69442659     0.20200
C1097       C  0.64226829  0.86979046  0.67805012    -0.54700
C1098       C  0.65205598  0.84624132  0.70080037     0.09300
C1099       C  0.59040889  0.83878157  0.63239027    -0.54200
C1100       C  0.60040180  0.81516734  0.65452298     0.09900
H1101       H  0.51856090  0.87893053  0.67554803     0.14400
H1102       H  0.61372489  0.80346527  0.71203925     0.00200
H1103       H  0.67076118  0.88724721  0.67890718     0.14700
H1104       H  0.58668776  0.83688953  0.60371378     0.14500
C1105       C  0.65481459  0.64921454  0.60331864     0.86300
C1106       C  0.65805847  0.67946206  0.62169701    -0.53900
C1107       C  0.64611361  0.70257581  0.59881482     0.09200
C1108       C  0.63290176  0.69346284  0.55900681     0.20200
C1109       C  0.59921877  0.64840547  0.58041845    -0.54700
C1110       C  0.58776139  0.67096647  0.55646735     0.09300
C1111       C  0.68973774  0.65193286  0.57627439    -0.54200
C1112       C  0.67862864  0.67494335  0.55319929     0.09900
H1113       H  0.66503099  0.68216176  0.65048097     0.14400
H1114       H  0.62562551  0.71228309  0.54035877     0.00200
H1115       H  0.56958198  0.63261307  0.58360777     0.14700
H1116       H  0.72063381  0.63666100  0.57527521     0.14500
C1117       C  0.91638463  0.86427216  0.85578129     0.86300
C1118       C  0.95050620  0.85956672  0.82825472    -0.53900
C1119       C  0.93398448  0.83738568  0.80423953     0.09200
C1120       C  0.88482249  0.82123344  0.81003579     0.20200
C1121       C  0.86153442  0.86783482  0.83334064    -0.54700
C1122       C  0.84492665  0.84598713  0.80857731     0.09300
C1123       C  0.91503602  0.83386227  0.87313741    -0.54200
C1124       C  0.89738464  0.81148750  0.84954513     0.09900
H1125       H  0.98557456  0.87179687  0.82720709     0.14400
H1126       H  0.87284539  0.80271227  0.79093828     0.00200
H1127       H  0.83759653  0.88589232  0.83818039     0.14700
H1128       H  0.92434152  0.83049510  0.90179327     0.14500
C1129       C  0.83293316  0.64545264  0.90090201     0.86300
C1130       C  0.83546757  0.67532015  0.88252378    -0.53900
C1131       C  0.84824500  0.69862546  0.90550096     0.09200
C1132       C  0.85663830  0.69015523  0.94526501     0.20200
C1133       C  0.88676272  0.64379012  0.92585901    -0.54700
C1134       C  0.89854679  0.66644869  0.94996709     0.09300
C1135       C  0.79551920  0.64962709  0.92598727    -0.54200
C1136       C  0.80731731  0.67294872  0.94913299     0.09900
H1137       H  0.83063703  0.67762283  0.85383394     0.14400
H1138       H  0.86601641  0.70938269  0.96363540     0.00200
H1139       H  0.91541947  0.62764982  0.92366994     0.14700
H1140       H  0.76279654  0.63472789  0.92591155     0.14500
C1141       C  0.58732778  0.14988203  0.64642177     0.86300
C1142       C  0.59464774  0.18016794  0.63029657    -0.53900
C1143       C  0.60235721  0.20347729  0.65380869     0.09200
C1144       C  0.60434804  0.19347982  0.69299443     0.20200
C1145       C  0.63693507  0.14690054  0.67518937    -0.54700
C1146       C  0.64608762  0.16942506  0.69955392     0.09300
C1147       C  0.54392687  0.15442106  0.66646317    -0.54200
C1148       C  0.55279768  0.17618975  0.69199930     0.09900
H1149       H  0.59799044  0.18320959  0.60303042     0.14400
H1150       H  0.61205130  0.21132873  0.71325291     0.00200
H1151       H  0.66360168  0.12885022  0.67565695     0.14700
H1152       H  0.50957272  0.14021221  0.66164877     0.14500
C1153       C  0.65865554  0.37208899  0.59379428     0.86300
C1154       C  0.69568426  0.36596365  0.56862475    -0.53900
C1155       C  0.68090717  0.34288222  0.54560204     0.09200
C1156       C  0.63041118  0.32749055  0.55015383     0.20200
C1157       C  0.60566772  0.37558769  0.56896587    -0.54700
C1158       C  0.59065805  0.35272578  0.54569526     0.09300
C1159       C  0.65500400  0.34237232  0.61239044    -0.54200
C1160       C  0.63997544  0.31836998  0.59027579     0.09900
H1161       H  0.73061493  0.37838833  0.56787399     0.14400
H1162       H  0.61961736  0.30961504  0.53049403     0.00200
H1163       H  0.58176527  0.39462143  0.57029748     0.14700
H1164       H  0.66208835  0.34127437  0.64119990     0.14500
C1165       C  0.90619447  0.14387221  0.85154521     0.86300
C1166       C  0.90049330  0.17325374  0.86989211    -0.53900
C1167       C  0.88838507  0.19643594  0.84710396     0.09200
C1168       C  0.88395703  0.18835293  0.80733449     0.20200
C1169       C  0.85478060  0.13981091  0.82342154    -0.54700
C1170       C  0.84272504  0.16336576  0.80076065     0.09300
C1171       C  0.94622894  0.15043444  0.82860116    -0.54200
C1172       C  0.93457659  0.17284493  0.80480979     0.09900
H1173       H  0.90417571  0.17538674  0.89853273     0.14400
H1174       H  0.87440884  0.20737897  0.78901693     0.00200
H1175       H  0.82986346  0.12030335  0.82153156     0.14700
H1176       H  0.97862749  0.13637438  0.82773541     0.14500
C1177       C  0.82157457  0.36417335  0.88789927     0.86300
C1178       C  0.78356278  0.35947461  0.91254525    -0.53900
C1179       C  0.79691529  0.33798400  0.93741128     0.09200
C1180       C  0.84697616  0.32213044  0.93471016     0.20200
C1181       C  0.87506610  0.36863206  0.91280352    -0.54700
C1182       C  0.88905931  0.34685167  0.93768797     0.09300
C1183       C  0.82504727  0.33342537  0.87127656    -0.54200
C1184       C  0.83902600  0.31157985  0.89563920     0.09900
H1185       H  0.74948690  0.37284361  0.91114208     0.14400
H1186       H  0.85505758  0.30414008  0.95437646     0.00200
H1187       H  0.89999464  0.38732176  0.90976661     0.14700
H1188       H  0.82005400  0.32861783  0.84314357     0.14500
O1189       O  0.68041569  0.54014729  0.71824332    -0.73100
O1190       O  0.72036217  0.47579086  0.78954518    -0.74100
O1191       O  0.72103967  0.53881665  0.79221859    -0.62700
O1192       O  0.67951816  0.47758312  0.71521152    -0.71100
O1193       O  0.75834537  0.48026753  0.70427548    -0.70700
O1194       O  0.80139456  0.53846802  0.78350060    -0.62000
O1195       O  0.79907553  0.47590776  0.77772777    -0.74500
O1196       O  0.76077226  0.54281829  0.70971574    -0.73200
Cu1197     Cu  0.69752323  0.50805602  0.75422372     1.04600
Cu1198     Cu  0.78268427  0.50943330  0.74351664     1.04300
C1199       C  0.71422424  0.55177469  0.70291121     0.93100
C1200       C  0.76565910  0.46518173  0.79400918     0.92200
C1201       C  0.76788011  0.54832636  0.79984475     0.84300
C1202       C  0.71246680  0.46931159  0.69736505     0.90600
O1203       O  0.56294955  0.03959486  0.53178183    -0.73100
O1204       O  0.51739630  0.97457886  0.96171943    -0.74100
O1205       O  0.51568794  0.03718052  0.95966952    -0.62700
O1206       O  0.56534059  0.97680310  0.53355708    -0.71100
O1207       O  0.98638806  0.97422687  0.54460655    -0.70700
O1208       O  0.93838177  0.03750266  0.97292424    -0.62000
O1209       O  0.93840480  0.97410559  0.97254918    -0.74500
O1210       O  0.98564576  0.03727884  0.54575454    -0.73200
Cu1211     Cu  0.54220295  0.00677313  0.99685113     1.04600
Cu1212     Cu  0.96035677  0.00551135  0.50880162     1.04300
C1213       C  0.53104368  0.04879201  0.54980864     0.93100
C1214       C  0.97129822  0.96402395  0.95569625     0.92200
C1215       C  0.97006411  0.04752695  0.95467594     0.84300
C1216       C  0.53303343  0.96546229  0.55043429     0.90600
C1217       C  0.80675104  0.39056167  0.86283653    -0.00300
C1218       C  0.79644960  0.38722711  0.82535189    -0.12200
C1219       C  0.78303947  0.41133580  0.80273803     0.01900
C1220       C  0.77910503  0.43954106  0.81720384    -0.00400
C1221       C  0.78850139  0.44331527  0.85413974    -0.12200
C1222       C  0.80258718  0.41936072  0.87696632     0.01800
H1223       H  0.79842478  0.36611147  0.81281400     0.14800
H1224       H  0.78545218  0.46515566  0.86518498     0.14800
C1225       C  0.81256320  0.42517537  0.91489202     0.36400
C1226       C  0.77239373  0.40645239  0.76459987     0.36300
N1227       N  0.82050622  0.42981452  0.94526325    -0.43900
N1228       N  0.76381345  0.40238563  0.73410285    -0.43900
C1229       C  0.92132775  0.11843082  0.87853602    -0.00300
C1230       C  0.97392126  0.11085298  0.88942685    -0.12200
C1231       C  0.99009525  0.08736962  0.91243389     0.01900
C1232       C  0.95408788  0.07165541  0.92815203    -0.00400
C1233       C  0.90207051  0.08037633  0.91965653    -0.12200
C1234       C  0.88558735  0.10346998  0.89554479     0.01800
H1235       H  0.00396529  0.12370919  0.88106958     0.14800
H1236       H  0.87388384  0.06920499  0.93205296     0.14800
C1237       C  0.83194659  0.11153109  0.88982228     0.36400
C1238       C  0.54459307  0.08074978  0.91972940     0.36300
N1239       N  0.78870681  0.11751113  0.88540987    -0.43900
N1240       N  0.58827269  0.07561163  0.92530976    -0.43900
C1241       C  0.87511980  0.22578341  0.85968269    -0.00300
C1242       C  0.90363965  0.25076784  0.85318880    -0.12200
C1243       C  0.89339875  0.27869978  0.86565739     0.01900
C1244       C  0.85338609  0.28199399  0.88457877    -0.00400
C1245       C  0.82498447  0.25703603  0.89122110    -0.12200
C1246       C  0.83523011  0.22907769  0.87876013     0.01800
H1247       H  0.93453846  0.24835572  0.83886029     0.14800
H1248       H  0.79386582  0.25953608  0.90533298     0.14800
C1249       C  0.80260804  0.20442856  0.88448876     0.36400
C1250       C  0.92538668  0.30356286  0.85955660     0.36300
N1251       N  0.77600996  0.18488749  0.88910149    -0.43900
N1252       N  0.95100334  0.32352547  0.85477275    -0.43900
C1253       C  0.67206423  0.39833299  0.61996302    -0.00300
C1254       C  0.71401586  0.41784229  0.61895566    -0.12200
C1255       C  0.72705982  0.44133542  0.64309370     0.01900
C1256       C  0.69787967  0.44620208  0.66931406    -0.00400
C1257       C  0.65464182  0.42782375  0.66954306    -0.12200
C1258       C  0.64139944  0.40433928  0.64530226     0.01800
H1259       H  0.73710716  0.41574342  0.59926276     0.14800
H1260       H  0.63139569  0.43141838  0.68921892     0.14800
C1261       C  0.59588166  0.38679411  0.64728888     0.36400
C1262       C  0.77018308  0.46035272  0.63950791     0.36300
N1263       N  0.55943311  0.37276200  0.64891449    -0.43900
N1264       N  0.80475500  0.47548775  0.63653264    -0.43900
C1265       C  0.93986537  0.34763155  0.96448715    -0.00300
C1266       C  0.96490097  0.37511661  0.97468729    -0.12200
C1267       C  0.51211767  0.37710150  0.99961150     0.01900
C1268       C  0.54115042  0.35249803  0.51832981    -0.00400
C1269       C  0.51447267  0.32561701  0.51029518    -0.12200
C1270       C  0.97122036  0.32272591  0.48232824     0.01800
H1271       H  0.94824278  0.39541631  0.96301443     0.14800
H1272       H  0.52788933  0.30654553  0.52571391     0.14800
C1273       C  0.95435461  0.29293570  0.47164796     0.36400
C1274       C  0.53891501  0.40541669  0.00388782     0.36300
N1275       N  0.94197298  0.26875866  0.46363287    -0.43900
N1276       N  0.56033074  0.42813235  0.00703516    -0.43900
C1277       C  0.71133315  0.33533248  0.51823004    -0.00300
C1278       C  0.76554786  0.33492547  0.52894089    -0.12200
C1279       C  0.79723814  0.33471768  0.50398560     0.01900
C1280       C  0.76628116  0.33245651  0.96529463    -0.00400
C1281       C  0.71212031  0.32984450  0.95478645    -0.12200
C1282       C  0.68050199  0.33065560  0.97987042     0.01800
H1283       H  0.78340272  0.33651776  0.55711064     0.14800
H1284       H  0.69427801  0.32865194  0.92659451     0.14800
C1285       C  0.62528049  0.33023739  0.96649381     0.36400
C1286       C  0.85222868  0.33801358  0.51744928     0.36300
N1287       N  0.58125552  0.32965799  0.95456133    -0.43900
N1288       N  0.89593294  0.34089863  0.52972583    -0.43900
C1289       C  0.57547946  0.12307547  0.62092466    -0.00300
C1290       C  0.56601496  0.12650005  0.58347651    -0.12200
C1291       C  0.55233613  0.10242575  0.56030305     0.01900
C1292       C  0.54620236  0.07413822  0.57400028    -0.00400
C1293       C  0.55516195  0.07015136  0.61088722    -0.12200
C1294       C  0.57015645  0.09409414  0.63434057     0.01800
H1295       H  0.56753309  0.14776786  0.57123519     0.14800
H1296       H  0.55086919  0.04821161  0.62139349     0.14800
C1297       C  0.57953249  0.08814192  0.67213337     0.36400
C1298       C  0.04316883  0.10748475  0.52228509     0.36300
N1299       N  0.58747233  0.08336457  0.70241170    -0.43900
N1300       N  0.03593423  0.11157470  0.49187886    -0.43900
C1301       C  0.69524791  0.17108164  0.72674900    -0.00300
C1302       C  0.74143890  0.17504445  0.71488624    -0.12200
C1303       C  0.78964314  0.17283822  0.73833377     0.01900
C1304       C  0.79239451  0.16590708  0.77459959    -0.00400
C1305       C  0.74592788  0.16246566  0.78660830    -0.12200
C1306       C  0.69760277  0.16525943  0.76310164     0.01800
H1307       H  0.73972946  0.17932697  0.68684436     0.14800
H1308       H  0.74741439  0.15771850  0.81449280     0.14800
C1309       C  0.65113453  0.16122921  0.77667791     0.36400
C1310       C  0.83507816  0.17657103  0.72357843     0.36300
N1311       N  0.61412933  0.15804553  0.78789237    -0.43900
N1312       N  0.87010164  0.17983565  0.71027308    -0.43900
C1313       C  0.96133134  0.17498480  0.77410350    -0.00300
C1314       C  0.98028981  0.20220542  0.76395260    -0.12200
C1315       C  0.50901488  0.20363890  0.73675106     0.01900
C1316       C  0.52053193  0.17737303  0.71998956    -0.00400
C1317       C  0.50046236  0.15045469  0.73008753    -0.12200
C1318       C  0.96983221  0.14916752  0.75539095     0.01800
H1319       H  0.97282535  0.22229717  0.77731191     0.14800
H1320       H  0.50873738  0.12980477  0.71828590     0.14800
C1321       C  0.94569060  0.12094570  0.76028189     0.36400
C1322       C  0.52406892  0.23230132  0.72559923     0.36300
N1323       N  0.92633233  0.09838210  0.76415585    -0.43900
N1324       N  0.53578586  0.25533994  0.71649908    -0.43900
C1325       C  0.63201920  0.28788783  0.60550337    -0.00300
C1326       C  0.65574553  0.28175911  0.64152119    -0.12200
C1327       C  0.64599979  0.25531818  0.65855560     0.01900
C1328       C  0.61010598  0.23418957  0.64021788    -0.00400
C1329       C  0.58560236  0.24058963  0.60482033    -0.12200
C1330       C  0.59941279  0.26521139  0.58668562     0.01800
H1331       H  0.68418649  0.29702027  0.65653674     0.14800
H1332       H  0.55742049  0.22501134  0.58992777     0.14800
C1333       C  0.58461903  0.26308835  0.54842190     0.36400
C1334       C  0.67528848  0.25032488  0.69421382     0.36300
N1335       N  0.57326674  0.25933816  0.51785517    -0.43900
N1336       N  0.69906905  0.24677778  0.72286097    -0.43900
C1337       C  0.81578426  0.61950988  0.87491014    -0.00300
C1338       C  0.84570236  0.59378287  0.87615484    -0.12200
C1339       C  0.83030806  0.57028237  0.85237672     0.01900
C1340       C  0.78344627  0.57158319  0.82705683    -0.00400
C1341       C  0.75203739  0.59620853  0.82654210    -0.12200
C1342       C  0.76767460  0.62004035  0.84992663     0.01800
H1343       H  0.88084321  0.59095459  0.89583955     0.14800
H1344       H  0.71569586  0.59718080  0.80713171     0.14800
C1345       C  0.73321516  0.64471809  0.84766637     0.31800
C1346       C  0.86252493  0.54453175  0.85536556     0.36300
N1347       N  0.70563958  0.66448412  0.84593381    -0.43900
N1348       N  0.88820978  0.52388314  0.85775395    -0.43900
C1349       C  0.95673558  0.93953539  0.92952723    -0.00300
C1350       C  0.91730343  0.91940346  0.93324566    -0.12200
C1351       C  0.90416350  0.89515657  0.91001866     0.01900
C1352       C  0.93140733  0.89012076  0.88241535    -0.00400
C1353       C  0.96984446  0.91115604  0.87839627    -0.12200
C1354       C  0.98249673  0.93542961  0.90131848     0.01800
H1355       H  0.89674256  0.92248678  0.95456265     0.14800
H1356       H  0.98956391  0.91004445  0.85670288     0.14800
C1357       C  0.02057119  0.95651611  0.89391116     0.36400
C1358       C  0.86143779  0.87634743  0.91476715     0.36300
N1359       N  0.05093357  0.97338278  0.88782635    -0.43900
N1360       N  0.82698504  0.86147492  0.91858527    -0.43900
C1361       C  0.88377424  0.78212991  0.86228199    -0.00300
C1362       C  0.92210426  0.76078584  0.87076738    -0.12200
C1363       C  0.91152264  0.73371718  0.88576519     0.01900
C1364       C  0.86194192  0.72787579  0.89265113    -0.00400
C1365       C  0.82377524  0.74927651  0.88444389    -0.12200
C1366       C  0.83437039  0.77635399  0.86952666     0.01800
H1367       H  0.96039960  0.76539444  0.86593506     0.14800
H1368       H  0.78558789  0.74473280  0.88951169     0.14800
C1369       C  0.79422697  0.79807271  0.86255481     0.36400
C1370       C  0.95199913  0.71222027  0.89376968     0.36300
N1371       N  0.76188477  0.81540125  0.85716502    -0.43900
N1372       N  0.98444727  0.69500010  0.90019325    -0.43900
C1373       C  0.67042421  0.62346270  0.62927307    -0.00300
C1374       C  0.63742033  0.59851447  0.62925961    -0.12200
C1375       C  0.65106285  0.57515614  0.65287739     0.01900
C1376       C  0.69915822  0.57579128  0.67707694    -0.00400
C1377       C  0.73342397  0.59967937  0.67645823    -0.12200
C1378       C  0.71970175  0.62330585  0.65298005     0.01800
H1379       H  0.60120484  0.59597722  0.61040059     0.14800
H1380       H  0.77090594  0.60006465  0.69470612     0.14800
C1381       C  0.75758141  0.64683145  0.65352350     0.36400
C1382       C  0.61581364  0.55003262  0.65036267     0.36300
N1383       N  0.78811515  0.66556017  0.65391935    -0.43900
N1384       N  0.58763327  0.52990828  0.64823744    -0.43900
C1385       C  0.94735394  0.66756972  0.97775599    -0.00300
C1386       C  0.97147753  0.69500655  0.98864467    -0.12200
C1387       C  0.51306065  0.69734584  0.51474376     0.01900
C1388       C  0.53754173  0.67128313  0.52956085    -0.00400
C1389       C  0.51386648  0.64387395  0.51786190    -0.12200
C1390       C  0.96953492  0.64163585  0.99445164     0.01800
H1391       H  0.95465620  0.71517958  0.97657839     0.14800
H1392       H  0.53183273  0.62338979  0.52792815     0.14800
C1393       C  0.94410130  0.61289705  0.98905826     0.36400
C1394       C  0.53088104  0.72647445  0.52770038     0.36300
N1395       N  0.92403430  0.58981159  0.98496753    -0.43900
N1396       N  0.54441115  0.75003700  0.53782969    -0.43900
C1397       C  0.70871599  0.68048540  0.52516600    -0.00300
C1398       C  0.76251016  0.68416017  0.53577816    -0.12200
C1399       C  0.79423229  0.68444685  0.51081441     0.01900
C1400       C  0.77577245  0.67891719  0.97627343    -0.00400
C1401       C  0.72153802  0.67728845  0.96539066    -0.12200
C1402       C  0.68968657  0.67718174  0.99026405     0.01800
H1403       H  0.78002966  0.68579218  0.56400988     0.14800
H1404       H  0.70397804  0.67488011  0.93725216     0.14800
C1405       C  0.63471061  0.67326833  0.97705170     0.36400
C1406       C  0.84915136  0.68733922  0.52462112     0.36300
N1407       N  0.59091977  0.67005267  0.96523991    -0.43900
N1408       N  0.89271491  0.69011677  0.53738035    -0.43900
C1409       C  0.54886947  0.94138720  0.57623658    -0.00300
C1410       C  0.51387078  0.91795774  0.57732374    -0.12200
C1411       C  0.52686860  0.89434843  0.60084508     0.01900
C1412       C  0.57564185  0.89405909  0.62511550    -0.00400
C1413       C  0.61068580  0.91780131  0.62350875    -0.12200
C1414       C  0.59788992  0.94104945  0.59936838     0.01800
H1415       H  0.97634226  0.91778320  0.55911823     0.14800
H1416       H  0.64861870  0.91890426  0.64054860     0.14800
C1417       C  0.63536522  0.96478234  0.59976376     0.36400
C1418       C  0.98924657  0.87049407  0.59898968     0.36300
N1419       N  0.66543971  0.98375656  0.60012631    -0.43900
N1420       N  0.95918806  0.85134560  0.59737983    -0.43900
C1421       C  0.70054571  0.84494723  0.72925037    -0.00300
C1422       C  0.72244142  0.87175663  0.74451044    -0.12200
C1423       C  0.76949388  0.87287444  0.76915643     0.01900
C1424       C  0.79397051  0.84632327  0.78242428    -0.00400
C1425       C  0.77064268  0.81932598  0.76863346    -0.12200
C1426       C  0.72586658  0.81840152  0.74138254     0.01800
H1427       H  0.70340663  0.89243463  0.73659515     0.14800
H1428       H  0.78782319  0.79861515  0.77850151     0.14800
C1429       C  0.70870014  0.78986354  0.72601454     0.36400
C1430       C  0.79262425  0.90188423  0.77768611     0.36300
N1431       N  0.69574179  0.76667786  0.71424691    -0.43900
N1432       N  0.81068965  0.92528072  0.78421318    -0.43900
C1433       C  0.96263392  0.83103224  0.77560277    -0.00300
C1434       C  0.51611232  0.82688747  0.78588600    -0.12200
C1435       C  0.54813684  0.82841504  0.76118836     0.01900
C1436       C  0.52663992  0.83375668  0.72474427    -0.00400
C1437       C  0.97245754  0.83570189  0.71405860    -0.12200
C1438       C  0.94048589  0.83447003  0.73900289     0.01800
H1439       H  0.53346763  0.82430407  0.81398373     0.14800
H1440       H  0.95513728  0.83941234  0.68618657     0.14800
C1441       C  0.88586037  0.83902484  0.72632961     0.36400
C1442       C  0.60301331  0.82714463  0.77539670     0.36300
N1443       N  0.84228577  0.84274036  0.71509470    -0.43900
N1444       N  0.64649716  0.82599766  0.78863750    -0.43900
C1445       C  0.63352638  0.73161717  0.61210717    -0.00300
C1446       C  0.66778433  0.75561314  0.61252592    -0.12200
C1447       C  0.65814838  0.78284898  0.62706886     0.01900
C1448       C  0.61328486  0.78626078  0.64108765    -0.00400
C1449       C  0.57925768  0.76223042  0.64086151    -0.12200
C1450       C  0.58897288  0.73499661  0.62646657     0.01800
H1451       H  0.70248084  0.75288656  0.60213869     0.14800
H1452       H  0.54473561  0.76489015  0.65147326     0.14800
C1453       C  0.55228279  0.71091748  0.62621733     0.36400
C1454       C  0.69565628  0.80669667  0.62854936     0.36300
N1455       N  0.52289746  0.69160265  0.62596128    -0.43900
N1456       N  0.72574513  0.82581344  0.63001801    -0.43900
loop_ 
_geom_bond_atom_site_label_1 
_geom_bond_atom_site_label_2 
_geom_bond_distance 
_geom_bond_site_symmetry_2 
_ccdc_geom_bond_type 
C1            C2   1.536       .  S
C1            C7   1.531       .  S
C1            C5   1.543       .  S
C1          C320   1.539       .  S
C2            H9   1.086       .  S
C2            C3   1.365       .  D
C3            C4   1.540       .  S
C3          C344   1.496       .  S
C4            C8   1.541       .  S
C4            C6   1.542       .  S
C4           H10   1.105       .  S
C5           H11   1.077       .  S
C5            C6   1.372       .  D
C6          C329   1.498       .  S
C7           H12   1.087       .  S
C7            C8   1.362       .  D
C8          C356   1.476       .  S
C13          C14   1.530       .  S
C13          C19   1.533       .  S
C13          C17   1.541       .  S
C13         C281   1.535       .  S
C14          H21   1.087       .  S
C14          C15   1.365       .  D
C15          C16   1.545       .  S
C15         C353   1.476       .  S
C16          C20   1.537       .  S
C16          C18   1.540       .  S
C16          H22   1.106       .  S
C17          H23   1.077       .  S
C17          C18   1.368       .  D
C18         C296   1.496       .  S
C19          H24   1.087       .  S
C19          C20   1.362       .  D
C20         C305   1.485       .  S
C25          C26   1.546       .  S
C25          C31   1.534       .  S
C25          C29   1.534       .  S
C25         C260   1.542       .  S
C26          H33   1.079       .  S
C26          C27   1.362       .  D
C27          C28   1.535       .  S
C27         C341   1.490       .  S
C28          C32   1.545       .  S
C28          C30   1.544       .  S
C28          H34   1.108       .  S
C29          H35   1.083       .  S
C29          C30   1.370       .  D
C30         C332   1.496       .  S
C31          H36   1.086       .  S
C31          C32   1.364       .  D
C32         C269   1.480       .  S
C37          C38   1.532       .  S
C37          C43   1.536       .  S
C37          C41   1.542       .  S
C37         C245   1.538       .  S
C38          H45   1.086       .  S
C38          C39   1.363       .  D
C39          C40   1.545       .  S
C39         C272   1.478       .  S
C40          C44   1.542       .  S
C40          C42   1.542       .  S
C40          H46   1.108       .  S
C41          H47   1.078       .  S
C41          C42   1.366       .  D
C42         C293   1.494       .  S
C43          H48   1.086       .  S
C43          C44   1.367       .  D
C44         C308   1.498       .  S
C49          C50   1.533       .  S
C49          C55   1.530       .  S
C49          C53   1.532       .  S
C49         C197   1.541       .  S
C50          H57   1.076       .  S
C50          C51   1.368       .  D
C51          C52   1.556       .  S
C51         C236   1.507       .  S
C52          C56   1.548       .  S
C52          C54   1.548       .  S
C52          H58   1.107       .  S
C53          H59   1.086       .  S
C53          C54   1.365       .  D
C54         C209   1.483       .  S
C55          H60   1.086       .  S
C55          C56   1.367       .  D
C56         C224   1.502       .  S
C61          C62   1.543       .  S
C61          C67   1.531       .  S
C61          C65   1.531       .  S
C61         C161   1.542       .  S
C62          H69   1.080       .  S
C62          C63   1.363       .  D
C63          C64   1.537       .  S
C63         C185   1.496       .  S
C64          C68   1.564       .  S
C64          C66   1.555       .  S
C64          H70   1.097       .  S
C65          H71   1.084       .  S
C65          C66   1.365       .  D
C66         C176   1.501       .  S
C67          H72   1.083       .  S
C67          C68   1.373       .  D
C68         C233   1.524       .  S
C73          C74   1.534       .  S
C73          C79   1.540       .  S
C73          C77   1.543       .  S
C73         C137   1.545       .  S
C74          H81   1.085       .  S
C74          C75   1.367       .  D
C75          C76   1.551       .  S
C75         C149   1.482       .  S
C76          C80   1.546       .  S
C76          C78   1.538       .  S
C76          H82   1.110       .  S
C77          H83   1.086       .  S
C77          C78   1.371       .  D
C78         C212   1.493       .  S
C79          H84   1.083       .  S
C79          C80   1.360       .  D
C80         C221   1.500       .  S
C85          C86   1.531       .  S
C85          C91   1.541       .  S
C85          C89   1.538       .  S
C85         C125   1.534       .  S
C86          H93   1.087       .  S
C86          C87   1.359       .  D
C87          C88   1.538       .  S
C87         C188   1.492       .  S
C88          C92   1.541       .  S
C88          C90   1.549       .  S
C88          H94   1.102       .  S
C89          H95   1.084       .  S
C89          C90   1.374       .  D
C90         C173   1.505       .  S
C91          H96   1.081       .  S
C91          C92   1.362       .  D
C92         C152   1.479       .  S
O97        Cu105   1.994       .  S
O97         C107   1.277       .  A
O98        Cu105   2.007       .  S
O98         C108   1.277       .  A
O99        Cu105   2.007       .  S
O99         C109   1.277       .  A
O100       Cu105   2.009       .  S
O100        C110   1.278       .  A
O101       Cu106   1.998       .  S
O101        C110   1.277       .  A
O102       Cu106   1.995       .  S
O102        C109   1.277       .  A
O103       Cu106   1.990       .  S
O103        C108   1.274       .  A
O104       Cu106   1.994       .  S
O104        C107   1.276       .  A
Cu105      Cu106   2.375       .  S
C107        C284   1.470       .  S
C108        C128   1.462       .  S
C109        C248   1.471       .  S
C110        C164   1.489       .  S
O111       Cu483   1.988   1_554  S
O111        C121   1.274       .  A
O112       Cu119   1.993   1_565  S
O112        C850   1.276   1_455  A
O113       Cu119   2.008       .  S
O113        C851   1.279   1_455  A
O114       Cu483   2.006   1_564  S
O114        C124   1.278       .  A
O115       Cu120   2.003   1_565  S
O115        C852   1.277       .  A
O116       Cu484   2.013       .  S
O116        C123   1.278       .  A
O117       Cu484   2.017   1_565  S
O117        C122   1.279       .  A
O118       Cu120   2.024       .  S
O118        C849   1.279       .  A
Cu119       O475   1.993       .  S
Cu119       O478   2.010   1_545  S
Cu119     Cu1212   2.372   1_455  S
Cu120       O480   2.021   1_554  S
Cu120       O481   2.018   1_544  S
Cu120     Cu1211   2.371   1_554  S
C121        O846   1.279   1_455  A
C121        C200   1.469       .  S
C122        O840   1.276       .  A
C122        C257   1.486       .  S
C123        O841   1.279       .  A
C123        C140   1.487       .  S
C124        O843   1.277   1_455  A
C124        C317   1.474       .  S
C125        C126   1.412       .  A
C125        C130   1.425       .  A
C126        C127   1.397       .  A
C126        H131   1.076       .  S
C127        C128   1.404       .  A
C127        C134   1.446       .  S
C128        C129   1.395       .  A
C129        C130   1.399       .  A
C129        H132   1.085       .  S
C130        C133   1.445       .  S
C133        N135   1.157       .  T
C134        N136   1.157       .  T
C137        C138   1.414       .  A
C137        C142   1.420       .  A
C138        C139   1.396       .  A
C138        H143   1.078       .  S
C139        C140   1.409       .  A
C139        C874   1.445       .  S
C140        C141   1.405       .  A
C141        C142   1.406       .  A
C141        H144   1.085       .  S
C142        C145   1.442       .  S
C145        N147   1.157       .  T
C146        C867   1.445   1_455  S
C146        N148   1.157       .  T
C149        C150   1.401       .  A
C149        C154   1.415       .  A
C150        C151   1.403       .  A
C150        H155   1.085       .  S
C151        C152   1.413       .  A
C151        C158   1.444       .  S
C152        C153   1.396       .  A
C153        C154   1.400       .  A
C153        H156   1.085       .  S
C154        C157   1.441       .  S
C157        N159   1.156       .  T
C158        N160   1.157       .  T
C161        C162   1.412       .  A
C161        C166   1.421       .  A
C162        C163   1.398       .  A
C162        H167   1.076       .  S
C163        C164   1.413       .  A
C163        C170   1.446       .  S
C164        C165   1.404       .  A
C165        C166   1.401       .  A
C165        H168   1.085       .  S
C166        C169   1.445       .  S
C169        N171   1.157       .  T
C170        N172   1.157       .  T
C173        C174   1.413       .  A
C173        C542   1.418       .  A
C174        C903   1.402       .  A
C174        H179   1.081       .  S
C175        C902   1.402   1_455  A
C175        C540   1.414       .  A
C175        C182   1.444       .  S
C176        C177   1.397       .  A
C176        C539   1.417   1_554  A
C177        C906   1.398   1_454  A
C177        H180   1.070       .  S
C178        C537   1.418       .  A
C178        C905   1.398   1_556  A
C178        C181   1.442       .  S
C181        N183   1.157       .  T
C182        N184   1.157       .  T
C185        C186   1.405       .  A
C185        C554   1.414   1_554  A
C186        C187   1.400       .  A
C186        H191   1.085       .  S
C187        C552   1.412   1_554  A
C187        C194   1.441       .  S
C188        C189   1.405       .  A
C188        C551   1.412       .  A
C189        C190   1.403       .  A
C189        H192   1.085       .  S
C190        C549   1.414       .  A
C190        C193   1.441       .  S
C193        N195   1.157       .  T
C194        N196   1.156       .  T
C197        C198   1.413       .  A
C197        C202   1.425       .  A
C198        C199   1.394       .  A
C198        H203   1.074       .  S
C199        C200   1.403       .  A
C199        C934   1.445       .  S
C200        C201   1.398       .  A
C201        C202   1.404       .  A
C201        H204   1.085       .  S
C202        C205   1.445       .  S
C205        N207   1.157       .  T
C206        C927   1.445       .  S
C206        N208   1.156   1_554  T
C209        C210   1.402       .  A
C209        C214   1.407       .  A
C210        C211   1.402       .  A
C210        H215   1.085       .  S
C211        C212   1.413       .  A
C211        C218   1.442       .  S
C212        C213   1.407       .  A
C213        C214   1.403       .  A
C213        H216   1.082       .  S
C214        C217   1.442       .  S
C217        N219   1.157       .  T
C218        N220   1.157       .  T
C221        C222   1.408       .  A
C221        C226   1.419       .  A
C222        C951   1.416       .  A
C222        H227   1.084       .  S
C223        C224   1.416       .  A
C223        C950   1.416   1_455  A
C223        C230   1.442       .  S
C224        C225   1.403       .  A
C225        C954   1.390   1_455  A
C225        H228   1.084       .  S
C226        C953   1.390       .  A
C226        C229   1.447       .  S
C229        N231   1.157       .  T
C230        N232   1.157       .  T
C233        C234   1.422       .  A
C233        C238   1.419       .  A
C234        C235   1.409       .  A
C234        H239   1.081       .  S
C235        C236   1.409       .  A
C235        C242   1.443       .  S
C236        C237   1.407       .  A
C237        C238   1.397       .  A
C237        H240   1.085       .  S
C238        C241   1.439       .  S
C241        N243   1.158       .  T
C242        N244   1.157       .  T
C245        C246   1.415       .  A
C245        C250   1.422       .  A
C246        C247   1.397       .  A
C246        H251   1.076       .  S
C247        C248   1.404       .  A
C247        C254   1.446       .  S
C248        C249   1.400       .  A
C249        C250   1.401       .  A
C249        H252   1.085       .  S
C250        C253   1.445       .  S
C253        N255   1.157       .  T
C254        N256   1.157       .  T
C257        C258   1.403       .  A
C257        C262   1.412       .  A
C258        C259   1.403       .  A
C258        H263   1.085       .  S
C259        C260   1.422       .  A
C259        C266   1.445       .  S
C260        C261   1.412       .  A
C261        C262   1.396       .  A
C261        H264   1.074       .  S
C262        C265   1.446       .  S
C265        N267   1.157       .  T
C266        N268   1.157       .  T
C269        C270   1.401       .  A
C269        C274   1.413       .  A
C270        C271   1.402       .  A
C270        H275   1.085       .  S
C271        C272   1.412       .  A
C271        C278   1.444       .  S
C272        C273   1.399       .  A
C273        C274   1.402       .  A
C273        H276   1.085       .  S
C274        C277   1.443       .  S
C277        N279   1.157       .  T
C278        N280   1.157       .  T
C281        C282   1.414       .  A
C281        C286   1.421       .  A
C282        C283   1.394       .  A
C282        H287   1.075       .  S
C283        C284   1.405       .  A
C283        C290   1.446       .  S
C284        C285   1.401       .  A
C285        C286   1.399       .  A
C285        H288   1.085       .  S
C286        C289   1.445       .  S
C289        N291   1.157       .  T
C290        N292   1.157       .  T
C293        C294   1.406       .  A
C293        C298   1.416       .  A
C294       C1387   1.405       .  A
C294        H299   1.083       .  S
C295        C296   1.416       .  A
C295       C1386   1.404   1_454  A
C295        C302   1.442       .  S
C296        C297   1.407       .  A
C297       C1390   1.388   1_454  A
C297        H300   1.083       .  S
C298       C1389   1.391       .  A
C298        C301   1.446       .  S
C301        N303   1.158       .  T
C302        N304   1.157       .  T
C305        C306   1.401       .  A
C305        C674   1.410   1_554  A
C306        C307   1.401       .  A
C306        H311   1.085       .  S
C307        C672   1.415   1_554  A
C307        C314   1.440       .  S
C308        C309   1.408       .  A
C308        C671   1.416       .  A
C309        C310   1.403       .  A
C309        H312   1.085       .  S
C310        C669   1.411       .  A
C310        C313   1.442       .  S
C313        N315   1.157       .  T
C314        N316   1.157       .  T
C317        C318   1.399       .  A
C317        C322   1.405       .  A
C318        C319   1.399       .  A
C318       H1051   1.085   1_455  S
C319        C320   1.422       .  A
C319       C1054   1.446   1_455  S
C320        C321   1.415       .  A
C321        C322   1.399       .  A
C321        H324   1.075       .  S
C322        C325   1.446       .  S
H323       C1046   1.085       .  S
C325        N327   1.157       .  T
C326       C1047   1.446       .  S
C326        N328   1.157       .  T
C329        C330   1.406       .  A
C329        C334   1.417       .  A
C330        C331   1.393       .  A
C330        H335   1.083       .  S
C331        C332   1.416       .  A
C331        C338   1.444       .  S
C332        C333   1.407       .  A
C333        C334   1.401       .  A
C333        H336   1.082       .  S
C334        C337   1.443       .  S
C337        N339   1.158       .  T
C338        N340   1.158       .  T
C341        C346   1.412       .  A
C341       C1070   1.402       .  A
C342        C343   1.400       .  A
C342       C1069   1.402   1_455  A
C342        H347   1.086       .  S
C343        C344   1.415       .  A
C343        C350   1.440       .  S
C344       C1073   1.408   1_455  A
C345        C346   1.405       .  A
C345       C1072   1.408       .  A
C345        H348   1.085       .  S
C346        C349   1.442       .  S
C349        N351   1.157       .  T
C350        N352   1.156       .  T
C353        C354   1.398       .  A
C353        C358   1.414       .  A
C354        C355   1.401       .  A
C354        H359   1.085       .  S
C355        C356   1.414       .  A
C355        C362   1.444       .  S
C356        C357   1.397       .  A
C357        C358   1.398       .  A
C357        H360   1.085       .  S
C358        C361   1.444       .  S
C361        N363   1.157       .  T
C362        N364   1.157       .  T
C365        C366   1.539       .  S
C365        C371   1.529       .  S
C365        C369   1.544       .  S
C365        C684   1.541       .  S
C366        H373   1.086       .  S
C366        C367   1.368       .  D
C367        C368   1.543       .  S
C367        C708   1.500       .  S
C368        C372   1.541       .  S
C368        C370   1.542       .  S
C368        H374   1.106       .  S
C369        H375   1.077       .  S
C369        C370   1.372       .  D
C370        C693   1.499       .  S
C371        H376   1.087       .  S
C371        C372   1.360       .  D
C372        C720   1.476       .  S
C377        C378   1.530       .  S
C377        C383   1.533       .  S
C377        C381   1.544       .  S
C377        C645   1.538       .  S
C378        H385   1.087       .  S
C378        C379   1.364       .  D
C379        C380   1.546       .  S
C379        C717   1.477       .  S
C380        C384   1.538       .  S
C380        C382   1.541       .  S
C380        H386   1.106       .  S
C381        H387   1.077       .  S
C381        C382   1.369       .  D
C382        C660   1.499       .  S
C383        H388   1.087       .  S
C383        C384   1.363       .  D
C384        C669   1.487       .  S
C389        C390   1.545       .  S
C389        C395   1.533       .  S
C389        C393   1.533       .  S
C389        C624   1.541       .  S
C390        H397   1.079       .  S
C390        C391   1.362       .  D
C391        C392   1.537       .  S
C391        C705   1.492       .  S
C392        C396   1.548       .  S
C392        C394   1.546       .  S
C392        H398   1.108       .  S
C393        H399   1.082       .  S
C393        C394   1.369       .  D
C394        C696   1.500       .  S
C395        H400   1.086       .  S
C395        C396   1.364       .  D
C396        C633   1.480       .  S
C401        C402   1.532       .  S
C401        C407   1.534       .  S
C401        C405   1.541       .  S
C401        C609   1.536       .  S
C402        H409   1.086       .  S
C402        C403   1.363       .  D
C403        C404   1.545       .  S
C403        C636   1.478       .  S
C404        C408   1.541       .  S
C404        C406   1.540       .  S
C404        H410   1.109       .  S
C405        H411   1.078       .  S
C405        C406   1.365       .  D
C406        C657   1.489       .  S
C407        H412   1.087       .  S
C407        C408   1.365       .  D
C408        C672   1.494       .  S
C413        C414   1.530       .  S
C413        C419   1.528       .  S
C413        C417   1.532       .  S
C413        C561   1.541       .  S
C414        H421   1.078       .  S
C414        C415   1.370       .  D
C415        C416   1.562       .  S
C415        C600   1.511       .  S
C416        C420   1.553       .  S
C416        C418   1.547       .  S
C416        H422   1.105       .  S
C417        H423   1.086       .  S
C417        C418   1.364       .  D
C418        C573   1.484       .  S
C419        H424   1.086       .  S
C419        C420   1.369       .  D
C420        C588   1.509       .  S
C425        C426   1.543       .  S
C425        C431   1.534       .  S
C425        C429   1.529       .  S
C425        C525   1.540       .  S
C426        H433   1.078       .  S
C426        C427   1.363       .  D
C427        C428   1.538       .  S
C427        C549   1.496       .  S
C428        C432   1.564       .  S
C428        C430   1.551       .  S
C428        H434   1.096       .  S
C429        H435   1.085       .  S
C429        C430   1.362       .  D
C430        C540   1.494       .  S
C431        H436   1.083       .  S
C431        C432   1.376       .  D
C432        C597   1.527       .  S
C437        C438   1.527       .  S
C437        C443   1.540       .  S
C437        C441   1.553       .  S
C437        C501   1.550       .  S
C438        H445   1.086       .  S
C438        C439   1.365       .  D
C439        C440   1.548       .  S
C439        C513   1.485       .  S
C440        C444   1.544       .  S
C440        C442   1.538       .  S
C440        H446   1.111       .  S
C441        H447   1.084       .  S
C441        C442   1.375       .  D
C442        C576   1.493       .  S
C443        H448   1.083       .  S
C443        C444   1.361       .  D
C444        C585   1.501       .  S
C449        C450   1.533       .  S
C449        C455   1.541       .  S
C449        C453   1.539       .  S
C449        C489   1.538       .  S
C450        H457   1.087       .  S
C450        C451   1.361       .  D
C451        C452   1.540       .  S
C451        C552   1.492       .  S
C452        C456   1.542       .  S
C452        C454   1.550       .  S
C452        H458   1.103       .  S
C453        H459   1.084       .  S
C453        C454   1.373       .  D
C454        C537   1.508       .  S
C455        H460   1.080       .  S
C455        C456   1.363       .  D
C456        C516   1.483       .  S
O461       Cu469   1.996       .  S
O461        C471   1.277       .  A
O462       Cu469   2.006       .  S
O462        C472   1.277       .  A
O463       Cu469   2.005       .  S
O463        C473   1.277       .  A
O464       Cu469   2.008       .  S
O464        C474   1.278       .  A
O465       Cu470   1.992       .  S
O465        C474   1.276       .  A
O466       Cu470   1.992       .  S
O466        C473   1.276       .  A
O467       Cu470   2.000       .  S
O467        C472   1.276       .  A
O468       Cu470   2.005       .  S
O468        C471   1.277       .  A
Cu469      Cu470   2.374       .  S
C471        C648   1.474       .  S
C472        C492   1.466       .  S
C473        C612   1.471       .  S
C474        C528   1.484       .  S
O475        C485   1.275       .  A
O476       Cu483   1.987   1_565  S
O476       C1214   1.275   1_455  A
O477       Cu483   2.009       .  S
O477       C1215   1.279   1_455  A
O478        C488   1.278       .  A
O479       Cu484   2.001   1_565  S
O479       C1216   1.277       .  A
O480        C487   1.279       .  A
O481        C486   1.279       .  A
O482       Cu484   2.018       .  S
O482       C1213   1.279       .  A
Cu483      Cu848   2.371   1_456  S
Cu484      Cu847   2.372       .  S
C485       O1210   1.279   1_455  A
C485        C564   1.469       .  S
C486       O1204   1.275       .  A
C486        C621   1.483       .  S
C487       O1205   1.279       .  A
C487        C504   1.498       .  S
C488       O1207   1.277   1_455  A
C488        C681   1.479       .  S
C489        C490   1.413       .  A
C489        C494   1.425       .  A
C490        C491   1.398       .  A
C490        H495   1.076       .  S
C491        C492   1.405       .  A
C491        C498   1.446       .  S
C492        C493   1.395       .  A
C493        C494   1.400       .  A
C493        H496   1.085       .  S
C494        C497   1.445       .  S
C497        N499   1.157       .  T
C498        N500   1.157       .  T
C501        C502   1.414       .  A
C501        C506   1.421       .  A
C502        C503   1.397       .  A
C502        H507   1.079       .  S
C503        C504   1.413       .  A
C503       C1238   1.446       .  S
C504        C505   1.409       .  A
C505        C506   1.409       .  A
C505        H508   1.084       .  S
C506        C509   1.443       .  S
C509        N511   1.157       .  T
C510       C1231   1.446   1_455  S
C510        N512   1.157       .  T
C513        C514   1.399       .  A
C513        C518   1.416       .  A
C514        C515   1.401       .  A
C514        H519   1.085       .  S
C515        C516   1.415       .  A
C515        C522   1.444       .  S
C516        C517   1.398       .  A
C517        C518   1.402       .  A
C517        H520   1.085       .  S
C518        C521   1.443       .  S
C521        N523   1.157       .  T
C522        N524   1.157       .  T
C525        C526   1.412       .  A
C525        C530   1.422       .  A
C526        C527   1.397       .  A
C526        H531   1.073       .  S
C527        C528   1.412       .  A
C527        C534   1.446       .  S
C528        C529   1.403       .  A
C529        C530   1.400       .  A
C529        H532   1.084       .  S
C530        C533   1.445       .  S
C533        N535   1.157       .  T
C534        N536   1.157       .  T
C537        C538   1.412       .  A
C538       C1267   1.403       .  A
C538        H543   1.082       .  S
C539       C1266   1.403   1_455  A
C539        C546   1.444   1_556  S
C540        C541   1.395       .  A
C541       C1270   1.396   1_455  A
C541        H544   1.070       .  S
C542       C1269   1.396       .  A
C542        C545   1.442       .  S
C545        N547   1.158       .  T
C546        N548   1.157       .  T
C549        C550   1.406       .  A
C550        C551   1.401       .  A
C550        H555   1.085       .  S
C551        C558   1.441       .  S
C552        C553   1.406       .  A
C553        C554   1.404       .  A
C553        H556   1.085       .  S
C554        C557   1.441       .  S
C557        N559   1.157       .  T
C558        N560   1.157       .  T
C561        C562   1.415       .  A
C561        C566   1.425       .  A
C562        C563   1.397       .  A
C562        H567   1.075       .  S
C563        C564   1.404       .  A
C563       C1298   1.447       .  S
C564        C565   1.397       .  A
C565        C566   1.403       .  A
C565        H568   1.085       .  S
C566        C569   1.445       .  S
C569        N571   1.157       .  T
C570       C1291   1.447       .  S
C570        N572   1.157       .  T
C573        C574   1.401       .  A
C573        C578   1.409       .  A
C574        C575   1.401       .  A
C574        H579   1.085       .  S
C575        C576   1.414       .  A
C575        C582   1.441       .  S
C576        C577   1.408       .  A
C577        C578   1.407       .  A
C577        H580   1.084       .  S
C578        C581   1.443       .  S
C581        N583   1.157       .  T
C582        N584   1.157       .  T
C585        C586   1.408       .  A
C585        C590   1.416       .  A
C586       C1315   1.417       .  A
C586        H591   1.084       .  S
C587       C1314   1.417   1_455  A
C587        C588   1.418       .  A
C587        C594   1.442       .  S
C588        C589   1.407       .  A
C589       C1318   1.392   1_455  A
C589        H592   1.083       .  S
C590       C1317   1.392       .  A
C590        C593   1.447       .  S
C593        N595   1.157       .  T
C594        N596   1.157       .  T
C597        C598   1.421       .  A
C597        C602   1.420       .  A
C598        C599   1.410       .  A
C598        H603   1.081       .  S
C599        C600   1.410       .  A
C599        C606   1.442       .  S
C600        C601   1.408       .  A
C601        C602   1.398       .  A
C601        H604   1.084       .  S
C602        C605   1.439       .  S
C605        N607   1.158       .  T
C606        N608   1.157       .  T
C609        C610   1.414       .  A
C609        C614   1.421       .  A
C610        C611   1.396       .  A
C610        H615   1.075       .  S
C611        C612   1.405       .  A
C611        C618   1.446       .  S
C612        C613   1.399       .  A
C613        C614   1.400       .  A
C613        H616   1.085       .  S
C614        C617   1.445       .  S
C617        N619   1.157       .  T
C618        N620   1.157       .  T
C621        C622   1.402       .  A
C621        C626   1.410       .  A
C622        C623   1.403       .  A
C622        H627   1.085       .  S
C623        C624   1.423       .  A
C623        C630   1.445       .  S
C624        C625   1.412       .  A
C625        C626   1.396       .  A
C625        H628   1.074       .  S
C626        C629   1.447       .  S
C629        N631   1.157       .  T
C630        N632   1.157       .  T
C633        C634   1.401       .  A
C633        C638   1.413       .  A
C634        C635   1.403       .  A
C634        H639   1.085       .  S
C635        C636   1.412       .  A
C635        C642   1.444       .  S
C636        C637   1.399       .  A
C637        C638   1.402       .  A
C637        H640   1.085       .  S
C638        C641   1.443       .  S
C641        N643   1.157       .  T
C642        N644   1.157       .  T
C645        C646   1.414       .  A
C645        C650   1.422       .  A
C646        C647   1.395       .  A
C646        H651   1.075       .  S
C647        C648   1.406       .  A
C647        C654   1.446       .  S
C648        C649   1.401       .  A
C649        C650   1.402       .  A
C649        H652   1.085       .  S
C650        C653   1.445       .  S
C653        N655   1.157       .  T
C654        N656   1.157       .  T
C657        C658   1.406       .  A
C657        C662   1.414       .  A
C658       C1023   1.404   1_556  A
C658        H663   1.083       .  S
C659       C1022   1.405   1_455  A
C659        C660   1.416       .  A
C659        C666   1.442       .  S
C660        C661   1.407       .  A
C661       C1026   1.391   1_455  A
C661        H664   1.083       .  S
C662       C1025   1.388   1_556  A
C662        C665   1.446       .  S
C665        N667   1.158       .  T
C666        N668   1.157       .  T
C669        C670   1.401       .  A
C670        C671   1.402       .  A
C670        H675   1.085       .  S
C671        C678   1.440       .  S
C672        C673   1.407       .  A
C673        C674   1.401       .  A
C673        H676   1.085       .  S
C674        C677   1.442       .  S
C677        N679   1.157       .  T
C678        N680   1.156       .  T
C681        C682   1.401       .  A
C681        C686   1.407       .  A
C682        C683   1.399       .  A
C682       H1415   1.085   1_455  S
C683        C684   1.421       .  A
C683       C1418   1.445   1_455  S
C684        C685   1.416       .  A
C685        C686   1.401       .  A
C685        H688   1.075       .  S
C686        C689   1.445       .  S
H687       C1410   1.085       .  S
C689        N691   1.157       .  T
C690       C1411   1.445       .  S
C690        N692   1.157       .  T
C693        C694   1.405       .  A
C693        C698   1.416       .  A
C694        C695   1.394       .  A
C694        H699   1.083       .  S
C695        C696   1.418       .  A
C695        C702   1.444       .  S
C696        C697   1.408       .  A
C697        C698   1.403       .  A
C697        H700   1.082       .  S
C698        C701   1.443       .  S
C701        N703   1.157       .  T
C702        N704   1.158       .  T
C705       C1434   1.402       .  A
C705        C710   1.412       .  A
C706       C1433   1.402   1_455  A
C706        C707   1.400       .  A
C706        H711   1.086       .  S
C707        C708   1.416       .  A
C707        C714   1.440       .  S
C708       C1437   1.409   1_455  A
C709       C1436   1.409       .  A
C709        C710   1.407       .  A
C709        H712   1.085       .  S
C710        C713   1.442       .  S
C713        N715   1.157       .  T
C714        N716   1.156       .  T
C717        C718   1.399       .  A
C717        C722   1.414       .  A
C718        C719   1.401       .  A
C718        H723   1.085       .  S
C719        C720   1.414       .  A
C719        C726   1.445       .  S
C720        C721   1.397       .  A
C721        C722   1.399       .  A
C721        H724   1.085       .  S
C722        C725   1.444       .  S
C725        N727   1.157       .  T
C726        N728   1.157       .  T
C729        C730   1.536       .  S
C729        C735   1.531       .  S
C729        C733   1.543       .  S
C729       C1048   1.539       .  S
C730        H737   1.086       .  S
C730        C731   1.365       .  D
C731        C732   1.540       .  S
C731       C1072   1.496       .  S
C732        C736   1.541       .  S
C732        C734   1.542       .  S
C732        H738   1.105       .  S
C733        H739   1.077       .  S
C733        C734   1.372       .  D
C734       C1057   1.498       .  S
C735        H740   1.087       .  S
C735        C736   1.362       .  D
C736       C1084   1.476       .  S
C741        C742   1.530       .  S
C741        C747   1.533       .  S
C741        C745   1.541       .  S
C741       C1009   1.535       .  S
C742        H749   1.087       .  S
C742        C743   1.365       .  D
C743        C744   1.545       .  S
C743       C1081   1.476       .  S
C744        C748   1.537       .  S
C744        C746   1.540       .  S
C744        H750   1.106       .  S
C745        H751   1.077       .  S
C745        C746   1.368       .  D
C746       C1024   1.496       .  S
C747        H752   1.087       .  S
C747        C748   1.362       .  D
C748       C1033   1.485       .  S
C753        C754   1.546       .  S
C753        C759   1.534       .  S
C753        C757   1.534       .  S
C753        C988   1.542       .  S
C754        H761   1.079       .  S
C754        C755   1.362       .  D
C755        C756   1.535       .  S
C755       C1069   1.490       .  S
C756        C760   1.545       .  S
C756        C758   1.544       .  S
C756        H762   1.108       .  S
C757        H763   1.083       .  S
C757        C758   1.369       .  D
C758       C1060   1.496       .  S
C759        H764   1.086       .  S
C759        C760   1.364       .  D
C760        C997   1.480       .  S
C765        C766   1.532       .  S
C765        C771   1.536       .  S
C765        C769   1.542       .  S
C765        C973   1.538       .  S
C766        H773   1.086       .  S
C766        C767   1.363       .  D
C767        C768   1.545       .  S
C767       C1000   1.478       .  S
C768        C772   1.542       .  S
C768        C770   1.542       .  S
C768        H774   1.108       .  S
C769        H775   1.078       .  S
C769        C770   1.366       .  D
C770       C1021   1.494       .  S
C771        H776   1.086       .  S
C771        C772   1.367       .  D
C772       C1036   1.498       .  S
C777        C778   1.533       .  S
C777        C783   1.530       .  S
C777        C781   1.532       .  S
C777        C925   1.541       .  S
C778        H785   1.076       .  S
C778        C779   1.368       .  D
C779        C780   1.556       .  S
C779        C964   1.507       .  S
C780        C784   1.548       .  S
C780        C782   1.548       .  S
C780        H786   1.107       .  S
C781        H787   1.086       .  S
C781        C782   1.365       .  D
C782        C937   1.483       .  S
C783        H788   1.086       .  S
C783        C784   1.367       .  D
C784        C952   1.502       .  S
C789        C790   1.543       .  S
C789        C795   1.531       .  S
C789        C793   1.531       .  S
C789        C889   1.542       .  S
C790        H797   1.080       .  S
C790        C791   1.363       .  D
C791        C792   1.537       .  S
C791        C913   1.496       .  S
C792        C796   1.564       .  S
C792        C794   1.555       .  S
C792        H798   1.097       .  S
C793        H799   1.084       .  S
C793        C794   1.365       .  D
C794        C904   1.501       .  S
C795        H800   1.083       .  S
C795        C796   1.373       .  D
C796        C961   1.524       .  S
C801        C802   1.534       .  S
C801        C807   1.540       .  S
C801        C805   1.543       .  S
C801        C865   1.545       .  S
C802        H809   1.085       .  S
C802        C803   1.367       .  D
C803        C804   1.551       .  S
C803        C877   1.482       .  S
C804        C808   1.546       .  S
C804        C806   1.538       .  S
C804        H810   1.110       .  S
C805        H811   1.086       .  S
C805        C806   1.371       .  D
C806        C940   1.493       .  S
C807        H812   1.083       .  S
C807        C808   1.360       .  D
C808        C949   1.500       .  S
C813        C814   1.531       .  S
C813        C819   1.541       .  S
C813        C817   1.538       .  S
C813        C853   1.534       .  S
C814        H821   1.087       .  S
C814        C815   1.359       .  D
C815        C816   1.538       .  S
C815        C916   1.492       .  S
C816        C820   1.541       .  S
C816        C818   1.549       .  S
C816        H822   1.102       .  S
C817        H823   1.084       .  S
C817        C818   1.374       .  D
C818        C901   1.505       .  S
C819        H824   1.081       .  S
C819        C820   1.362       .  D
C820        C880   1.479       .  S
O825       Cu833   1.994       .  S
O825        C835   1.277       .  A
O826       Cu833   2.007       .  S
O826        C836   1.277       .  A
O827       Cu833   2.007       .  S
O827        C837   1.277       .  A
O828       Cu833   2.009       .  S
O828        C838   1.278       .  A
O829       Cu834   1.998       .  S
O829        C838   1.277       .  A
O830       Cu834   1.995       .  S
O830        C837   1.277       .  A
O831       Cu834   1.990       .  S
O831        C836   1.274       .  A
O832       Cu834   1.994       .  S
O832        C835   1.276       .  A
Cu833      Cu834   2.375       .  S
C835       C1012   1.470       .  S
C836        C856   1.462       .  S
C837        C976   1.471       .  S
C838        C892   1.489       .  S
O839      Cu1211   1.988   1_554  S
O839        C849   1.274       .  A
O840       Cu847   1.993   1_565  S
O841       Cu847   2.008       .  S
O842      Cu1211   2.006   1_564  S
O842        C852   1.278       .  A
O843       Cu848   2.003   1_565  S
O844      Cu1212   2.013       .  S
O844        C851   1.278       .  A
O845      Cu1212   2.017   1_565  S
O845        C850   1.279       .  A
O846       Cu848   2.024       .  S
Cu847      O1203   1.993       .  S
Cu847      O1206   2.010   1_545  S
Cu848      O1208   2.021   1_554  S
Cu848      O1209   2.018   1_544  S
C849        C928   1.469       .  S
C850        C985   1.486       .  S
C851        C868   1.487       .  S
C852       C1045   1.474       .  S
C853        C854   1.412       .  A
C853        C858   1.425       .  A
C854        C855   1.397       .  A
C854        H859   1.076       .  S
C855        C856   1.404       .  A
C855        C862   1.446       .  S
C856        C857   1.395       .  A
C857        C858   1.399       .  A
C857        H860   1.085       .  S
C858        C861   1.445       .  S
C861        N863   1.157       .  T
C862        N864   1.157       .  T
C865        C866   1.414       .  A
C865        C870   1.420       .  A
C866        C867   1.396       .  A
C866        H871   1.078       .  S
C867        C868   1.409       .  A
C868        C869   1.405       .  A
C869        C870   1.406       .  A
C869        H872   1.085       .  S
C870        C873   1.442       .  S
C873        N875   1.157       .  T
C874        N876   1.157       .  T
C877        C878   1.401       .  A
C877        C882   1.415       .  A
C878        C879   1.403       .  A
C878        H883   1.085       .  S
C879        C880   1.413       .  A
C879        C886   1.444       .  S
C880        C881   1.396       .  A
C881        C882   1.400       .  A
C881        H884   1.085       .  S
C882        C885   1.441       .  S
C885        N887   1.156       .  T
C886        N888   1.157       .  T
C889        C890   1.412       .  A
C889        C894   1.421       .  A
C890        C891   1.398       .  A
C890        H895   1.076       .  S
C891        C892   1.413       .  A
C891        C898   1.446       .  S
C892        C893   1.404       .  A
C893        C894   1.401       .  A
C893        H896   1.085       .  S
C894        C897   1.445       .  S
C897        N899   1.157       .  T
C898        N900   1.157       .  T
C901        C902   1.413       .  A
C901       C1270   1.418       .  A
C902        H907   1.081       .  S
C903       C1268   1.414       .  A
C903        C910   1.444       .  S
C904       C1267   1.417   1_554  A
C904        C905   1.397       .  A
C905        H908   1.070       .  S
C906       C1265   1.418       .  A
C906        C909   1.442       .  S
C909        N911   1.157       .  T
C910        N912   1.157       .  T
C913        C914   1.405       .  A
C913       C1282   1.414   1_554  A
C914        C915   1.400       .  A
C914        H919   1.085       .  S
C915       C1280   1.412   1_554  A
C915        C922   1.441       .  S
C916       C1279   1.412       .  A
C916        C917   1.405       .  A
C917        C918   1.403       .  A
C917        H920   1.085       .  S
C918       C1277   1.414       .  A
C918        C921   1.441       .  S
C921        N923   1.157       .  T
C922        N924   1.156       .  T
C925        C926   1.413       .  A
C925        C930   1.425       .  A
C926        C927   1.394       .  A
C926        H931   1.074       .  S
C927        C928   1.403       .  A
C928        C929   1.398       .  A
C929        C930   1.404       .  A
C929        H932   1.085       .  S
C930        C933   1.445       .  S
C933        N935   1.157       .  T
C934        N936   1.156   1_554  T
C937        C938   1.402       .  A
C937        C942   1.407       .  A
C938        C939   1.402       .  A
C938        H943   1.085       .  S
C939        C940   1.413       .  A
C939        C946   1.442       .  S
C940        C941   1.407       .  A
C941        C942   1.403       .  A
C941        H944   1.082       .  S
C942        C945   1.442       .  S
C945        N947   1.157       .  T
C946        N948   1.157       .  T
C949        C950   1.408       .  A
C949        C954   1.419       .  A
C950        H955   1.084       .  S
C951        C952   1.416       .  A
C951        C958   1.442       .  S
C952        C953   1.403       .  A
C953        H956   1.084       .  S
C954        C957   1.447       .  S
C957        N959   1.157       .  T
C958        N960   1.157       .  T
C961        C962   1.422       .  A
C961        C966   1.419       .  A
C962        C963   1.409       .  A
C962        H967   1.081       .  S
C963        C964   1.409       .  A
C963        C970   1.443       .  S
C964        C965   1.407       .  A
C965        C966   1.397       .  A
C965        H968   1.085       .  S
C966        C969   1.439       .  S
C969        N971   1.158       .  T
C970        N972   1.157       .  T
C973        C974   1.415       .  A
C973        C978   1.422       .  A
C974        C975   1.397       .  A
C974        H979   1.076       .  S
C975        C976   1.404       .  A
C975        C982   1.446       .  S
C976        C977   1.400       .  A
C977        C978   1.401       .  A
C977        H980   1.085       .  S
C978        C981   1.445       .  S
C981        N983   1.157       .  T
C982        N984   1.157       .  T
C985        C986   1.403       .  A
C985        C990   1.412       .  A
C986        C987   1.403       .  A
C986        H991   1.085       .  S
C987        C988   1.422       .  A
C987        C994   1.445       .  S
C988        C989   1.412       .  A
C989        C990   1.396       .  A
C989        H992   1.074       .  S
C990        C993   1.446   1_655  S
C993        N995   1.157       .  T
C994        N996   1.157       .  T
C997        C998   1.401       .  A
C997       C1002   1.413       .  A
C998        C999   1.402       .  A
C998       H1003   1.085       .  S
C999       C1000   1.412       .  A
C999       C1006   1.444       .  S
C1000      C1001   1.399       .  A
C1001      C1002   1.402       .  A
C1001      H1004   1.085       .  S
C1002      C1005   1.443       .  S
C1005      N1007   1.157       .  T
C1006      N1008   1.157       .  T
C1009      C1010   1.414       .  A
C1009      C1014   1.421       .  A
C1010      C1011   1.394       .  A
C1010      H1015   1.075       .  S
C1011      C1012   1.405       .  A
C1011      C1018   1.446       .  S
C1012      C1013   1.401       .  A
C1013      C1014   1.399       .  A
C1013      H1016   1.085       .  S
C1014      C1017   1.445       .  S
C1017      N1019   1.157       .  T
C1018      N1020   1.157       .  T
C1021      C1022   1.406       .  A
C1021      C1026   1.416       .  A
C1022      H1027   1.083       .  S
C1023      C1024   1.416       .  A
C1023      C1030   1.442       .  S
C1024      C1025   1.407       .  A
C1025      H1028   1.083       .  S
C1026      C1029   1.446       .  S
C1029      N1031   1.158       .  T
C1030      N1032   1.157       .  T
C1033      C1034   1.401       .  A
C1033      C1402   1.410   1_554  A
C1034      C1035   1.401       .  A
C1034      H1039   1.085       .  S
C1035      C1400   1.415   1_554  A
C1035      C1042   1.440       .  S
C1036      C1399   1.416       .  A
C1036      C1037   1.408       .  A
C1037      C1038   1.403       .  A
C1037      H1040   1.085       .  S
C1038      C1397   1.411       .  A
C1038      C1041   1.442       .  S
C1041      N1043   1.157       .  T
C1042      N1044   1.157       .  T
C1045      C1046   1.399       .  A
C1045      C1050   1.405       .  A
C1046      C1047   1.399       .  A
C1047      C1048   1.422       .  A
C1048      C1049   1.415       .  A
C1049      C1050   1.399       .  A
C1049      H1052   1.075       .  S
C1050      C1053   1.446       .  S
C1053      N1055   1.157       .  T
C1054      N1056   1.157       .  T
C1057      C1058   1.406       .  A
C1057      C1062   1.417       .  A
C1058      C1059   1.393       .  A
C1058      H1063   1.083       .  S
C1059      C1060   1.416       .  A
C1059      C1066   1.444       .  S
C1060      C1061   1.407       .  A
C1061      C1062   1.401       .  A
C1061      H1064   1.082       .  S
C1062      C1065   1.443       .  S
C1065      N1067   1.158       .  T
C1066      N1068   1.158       .  T
C1069      C1074   1.412       .  A
C1070      C1071   1.400       .  A
C1070      H1075   1.086       .  S
C1071      C1072   1.415       .  A
C1071      C1078   1.440       .  S
C1073      C1074   1.405       .  A
C1073      H1076   1.085       .  S
C1074      C1077   1.442       .  S
C1077      N1079   1.157       .  T
C1078      N1080   1.156       .  T
C1081      C1082   1.398       .  A
C1081      C1086   1.414       .  A
C1082      C1083   1.401       .  A
C1082      H1087   1.085       .  S
C1083      C1084   1.414       .  A
C1083      C1090   1.444       .  S
C1084      C1085   1.397       .  A
C1085      C1086   1.398       .  A
C1085      H1088   1.085       .  S
C1086      C1089   1.444       .  S
C1089      N1091   1.157       .  T
C1090      N1092   1.157       .  T
C1093      C1094   1.539       .  S
C1093      C1099   1.529       .  S
C1093      C1097   1.544       .  S
C1093      C1412   1.541       .  S
C1094      H1101   1.086       .  S
C1094      C1095   1.368       .  D
C1095      C1096   1.543       .  S
C1095      C1436   1.500       .  S
C1096      C1100   1.541       .  S
C1096      C1098   1.542       .  S
C1096      H1102   1.106       .  S
C1097      H1103   1.077       .  S
C1097      C1098   1.372       .  D
C1098      C1421   1.499       .  S
C1099      H1104   1.087       .  S
C1099      C1100   1.360       .  D
C1100      C1448   1.476       .  S
C1105      C1106   1.530       .  S
C1105      C1111   1.533       .  S
C1105      C1109   1.544       .  S
C1105      C1373   1.538       .  S
C1106      H1113   1.087       .  S
C1106      C1107   1.364       .  D
C1107      C1108   1.546       .  S
C1107      C1445   1.477       .  S
C1108      C1112   1.538       .  S
C1108      C1110   1.541       .  S
C1108      H1114   1.106       .  S
C1109      H1115   1.077       .  S
C1109      C1110   1.369       .  D
C1110      C1388   1.499       .  S
C1111      H1116   1.087       .  S
C1111      C1112   1.363       .  D
C1112      C1397   1.487       .  S
C1117      C1118   1.545       .  S
C1117      C1123   1.533       .  S
C1117      C1121   1.533       .  S
C1117      C1352   1.541       .  S
C1118      H1125   1.079       .  S
C1118      C1119   1.362       .  D
C1119      C1120   1.537       .  S
C1119      C1433   1.492       .  S
C1120      C1124   1.548       .  S
C1120      C1122   1.546       .  S
C1120      H1126   1.108       .  S
C1121      H1127   1.082       .  S
C1121      C1122   1.369       .  D
C1122      C1424   1.500       .  S
C1123      H1128   1.086       .  S
C1123      C1124   1.364       .  D
C1124      C1361   1.480       .  S
C1129      C1130   1.532       .  S
C1129      C1135   1.534       .  S
C1129      C1133   1.541       .  S
C1129      C1337   1.536       .  S
C1130      H1137   1.086       .  S
C1130      C1131   1.363       .  D
C1131      C1132   1.545       .  S
C1131      C1364   1.478       .  S
C1132      C1136   1.541       .  S
C1132      C1134   1.540       .  S
C1132      H1138   1.109       .  S
C1133      H1139   1.078       .  S
C1133      C1134   1.365       .  D
C1134      C1385   1.489       .  S
C1135      H1140   1.087       .  S
C1135      C1136   1.365       .  D
C1136      C1400   1.494       .  S
C1141      C1142   1.530       .  S
C1141      C1147   1.528       .  S
C1141      C1145   1.532       .  S
C1141      C1289   1.541       .  S
C1142      H1149   1.078       .  S
C1142      C1143   1.370       .  D
C1143      C1144   1.562       .  S
C1143      C1328   1.511       .  S
C1144      C1148   1.553       .  S
C1144      C1146   1.547       .  S
C1144      H1150   1.105       .  S
C1145      H1151   1.086       .  S
C1145      C1146   1.364       .  D
C1146      C1301   1.484       .  S
C1147      H1152   1.086       .  S
C1147      C1148   1.369       .  D
C1148      C1316   1.509       .  S
C1153      C1154   1.543       .  S
C1153      C1159   1.534       .  S
C1153      C1157   1.529       .  S
C1153      C1253   1.540       .  S
C1154      H1161   1.078       .  S
C1154      C1155   1.363       .  D
C1155      C1156   1.538       .  S
C1155      C1277   1.496       .  S
C1156      C1160   1.564       .  S
C1156      C1158   1.551       .  S
C1156      H1162   1.096       .  S
C1157      H1163   1.085       .  S
C1157      C1158   1.362       .  D
C1158      C1268   1.494       .  S
C1159      H1164   1.083       .  S
C1159      C1160   1.376       .  D
C1160      C1325   1.527       .  S
C1165      C1166   1.527       .  S
C1165      C1171   1.540       .  S
C1165      C1169   1.553       .  S
C1165      C1229   1.550       .  S
C1166      H1173   1.086       .  S
C1166      C1167   1.365       .  D
C1167      C1168   1.548       .  S
C1167      C1241   1.485       .  S
C1168      C1172   1.544       .  S
C1168      C1170   1.538       .  S
C1168      H1174   1.111       .  S
C1169      H1175   1.084       .  S
C1169      C1170   1.375       .  D
C1170      C1304   1.493       .  S
C1171      H1176   1.083       .  S
C1171      C1172   1.361       .  D
C1172      C1313   1.501       .  S
C1177      C1178   1.533       .  S
C1177      C1183   1.541       .  S
C1177      C1181   1.539       .  S
C1177      C1217   1.538       .  S
C1178      H1185   1.087       .  S
C1178      C1179   1.361       .  D
C1179      C1180   1.540       .  S
C1179      C1280   1.492       .  S
C1180      C1184   1.542       .  S
C1180      C1182   1.550       .  S
C1180      H1186   1.103       .  S
C1181      H1187   1.084       .  S
C1181      C1182   1.373       .  D
C1182      C1265   1.508       .  S
C1183      H1188   1.080       .  S
C1183      C1184   1.363       .  D
C1184      C1244   1.483       .  S
O1189     Cu1197   1.996       .  S
O1189      C1199   1.277       .  A
O1190     Cu1197   2.006       .  S
O1190      C1200   1.277       .  A
O1191     Cu1197   2.005       .  S
O1191      C1201   1.277       .  A
O1192     Cu1197   2.008       .  S
O1192      C1202   1.278       .  A
O1193     Cu1198   1.992       .  S
O1193      C1202   1.276       .  A
O1194     Cu1198   1.992       .  S
O1194      C1201   1.276       .  A
O1195     Cu1198   2.000       .  S
O1195      C1200   1.276       .  A
O1196     Cu1198   2.005       .  S
O1196      C1199   1.277       .  A
Cu1197    Cu1198   2.374       .  S
C1199      C1376   1.474       .  S
C1200      C1220   1.466       .  S
C1201      C1340   1.471       .  S
C1202      C1256   1.484       .  S
O1203      C1213   1.275       .  A
O1204     Cu1211   1.987   1_565  S
O1205     Cu1211   2.009       .  S
O1206      C1216   1.278       .  A
O1207     Cu1212   2.001   1_565  S
O1208      C1215   1.279       .  A
O1209      C1214   1.279       .  A
O1210     Cu1212   2.018       .  S
C1213      C1292   1.468       .  S
C1214      C1349   1.483       .  S
C1215      C1232   1.498       .  S
C1216      C1409   1.479       .  S
C1217      C1218   1.413       .  A
C1217      C1222   1.425       .  A
C1218      C1219   1.398       .  A
C1218      H1223   1.076       .  S
C1219      C1220   1.405       .  A
C1219      C1226   1.446       .  S
C1220      C1221   1.395       .  A
C1221      C1222   1.400       .  A
C1221      H1224   1.085       .  S
C1222      C1225   1.445       .  S
C1225      N1227   1.157       .  T
C1226      N1228   1.157       .  T
C1229      C1230   1.414       .  A
C1229      C1234   1.421       .  A
C1230      C1231   1.397       .  A
C1230      H1235   1.079   1_655  S
C1231      C1232   1.413       .  A
C1232      C1233   1.409       .  A
C1233      C1234   1.409       .  A
C1233      H1236   1.084       .  S
C1234      C1237   1.443       .  S
C1237      N1239   1.157       .  T
C1238      N1240   1.157       .  T
C1241      C1242   1.399       .  A
C1241      C1246   1.416       .  A
C1242      C1243   1.401       .  A
C1242      H1247   1.085       .  S
C1243      C1244   1.415       .  A
C1243      C1250   1.444       .  S
C1244      C1245   1.398       .  A
C1245      C1246   1.402       .  A
C1245      H1248   1.085       .  S
C1246      C1249   1.443       .  S
C1249      N1251   1.157       .  T
C1250      N1252   1.157       .  T
C1253      C1254   1.412       .  A
C1253      C1258   1.422       .  A
C1254      C1255   1.397       .  A
C1254      H1259   1.073       .  S
C1255      C1256   1.412       .  A
C1255      C1262   1.446       .  S
C1256      C1257   1.403       .  A
C1257      C1258   1.400       .  A
C1257      H1260   1.084       .  S
C1258      C1261   1.445       .  S
C1261      N1263   1.157       .  T
C1262      N1264   1.157       .  T
C1265      C1266   1.412       .  A
C1266      H1271   1.082       .  S
C1267      C1274   1.444   1_556  S
C1268      C1269   1.395       .  A
C1269      H1272   1.070       .  S
C1270      C1273   1.442       .  S
C1273      N1275   1.158       .  T
C1274      N1276   1.157       .  T
C1277      C1278   1.406       .  A
C1278      C1279   1.401       .  A
C1278      H1283   1.085       .  S
C1279      C1286   1.441       .  S
C1280      C1281   1.406       .  A
C1281      C1282   1.404       .  A
C1281      H1284   1.085       .  S
C1282      C1285   1.441       .  S
C1285      N1287   1.157       .  T
C1286      N1288   1.157       .  T
C1289      C1290   1.414       .  A
C1289      C1294   1.425       .  A
C1290      C1291   1.397       .  A
C1290      H1295   1.075       .  S
C1291      C1292   1.404       .  A
C1292      C1293   1.397       .  A
C1293      C1294   1.403       .  A
C1293      H1296   1.085       .  S
C1294      C1297   1.445       .  S
C1297      N1299   1.157       .  T
C1298      N1300   1.157       .  T
C1301      C1302   1.401       .  A
C1301      C1306   1.409       .  A
C1302      C1303   1.401       .  A
C1302      H1307   1.085       .  S
C1303      C1304   1.414       .  A
C1303      C1310   1.441       .  S
C1304      C1305   1.408       .  A
C1305      C1306   1.407       .  A
C1305      H1308   1.084       .  S
C1306      C1309   1.443       .  S
C1309      N1311   1.157       .  T
C1310      N1312   1.157       .  T
C1313      C1314   1.408       .  A
C1313      C1318   1.416       .  A
C1314      H1319   1.084       .  S
C1315      C1316   1.418       .  A
C1315      C1322   1.442       .  S
C1316      C1317   1.407       .  A
C1317      H1320   1.083       .  S
C1318      C1321   1.447       .  S
C1321      N1323   1.157       .  T
C1322      N1324   1.157       .  T
C1325      C1326   1.421       .  A
C1325      C1330   1.420       .  A
C1326      C1327   1.410       .  A
C1326      H1331   1.081       .  S
C1327      C1328   1.410       .  A
C1327      C1334   1.442       .  S
C1328      C1329   1.408       .  A
C1329      C1330   1.398       .  A
C1329      H1332   1.084       .  S
C1330      C1333   1.439       .  S
C1333      N1335   1.158       .  T
C1334      N1336   1.157       .  T
C1337      C1338   1.414       .  A
C1337      C1342   1.421       .  A
C1338      C1339   1.396       .  A
C1338      H1343   1.075       .  S
C1339      C1340   1.405       .  A
C1339      C1346   1.446       .  S
C1340      C1341   1.399       .  A
C1341      C1342   1.400       .  A
C1341      H1344   1.085       .  S
C1342      C1345   1.445       .  S
C1345      N1347   1.157       .  T
C1346      N1348   1.157       .  T
C1349      C1350   1.402       .  A
C1349      C1354   1.410       .  A
C1350      C1351   1.403       .  A
C1350      H1355   1.085       .  S
C1351      C1352   1.423       .  A
C1351      C1358   1.445       .  S
C1352      C1353   1.412       .  A
C1353      C1354   1.396       .  A
C1353      H1356   1.074       .  S
C1354      C1357   1.447   1_655  S
C1357      N1359   1.157       .  T
C1358      N1360   1.157       .  T
C1361      C1362   1.401       .  A
C1361      C1366   1.413       .  A
C1362      C1363   1.403       .  A
C1362      H1367   1.085       .  S
C1363      C1364   1.412       .  A
C1363      C1370   1.444       .  S
C1364      C1365   1.399       .  A
C1365      C1366   1.402       .  A
C1365      H1368   1.085       .  S
C1366      C1369   1.443       .  S
C1369      N1371   1.157       .  T
C1370      N1372   1.157       .  T
C1373      C1374   1.414       .  A
C1373      C1378   1.422       .  A
C1374      C1375   1.395       .  A
C1374      H1379   1.075       .  S
C1375      C1376   1.406       .  A
C1375      C1382   1.446       .  S
C1376      C1377   1.401       .  A
C1377      C1378   1.402       .  A
C1377      H1380   1.085       .  S
C1378      C1381   1.445       .  S
C1381      N1383   1.157       .  T
C1382      N1384   1.157       .  T
C1385      C1386   1.406       .  A
C1385      C1390   1.414       .  A
C1386      H1391   1.083       .  S
C1387      C1388   1.416       .  A
C1387      C1394   1.442       .  S
C1388      C1389   1.407       .  A
C1389      H1392   1.083       .  S
C1390      C1393   1.446       .  S
C1393      N1395   1.158       .  T
C1394      N1396   1.157       .  T
C1397      C1398   1.401       .  A
C1398      C1399   1.402       .  A
C1398      H1403   1.085       .  S
C1399      C1406   1.440       .  S
C1400      C1401   1.407       .  A
C1401      C1402   1.401       .  A
C1401      H1404   1.085       .  S
C1402      C1405   1.442       .  S
C1405      N1407   1.157       .  T
C1406      N1408   1.156       .  T
C1409      C1410   1.401       .  A
C1409      C1414   1.407       .  A
C1410      C1411   1.399       .  A
C1411      C1412   1.421       .  A
C1412      C1413   1.416       .  A
C1413      C1414   1.401       .  A
C1413      H1416   1.075       .  S
C1414      C1417   1.445       .  S
C1417      N1419   1.157       .  T
C1418      N1420   1.157       .  T
C1421      C1422   1.405       .  A
C1421      C1426   1.416       .  A
C1422      C1423   1.394       .  A
C1422      H1427   1.083       .  S
C1423      C1424   1.418       .  A
C1423      C1430   1.444       .  S
C1424      C1425   1.408       .  A
C1425      C1426   1.403       .  A
C1425      H1428   1.082       .  S
C1426      C1429   1.443       .  S
C1429      N1431   1.157       .  T
C1430      N1432   1.158       .  T
C1433      C1438   1.412       .  A
C1434      C1435   1.400       .  A
C1434      H1439   1.086       .  S
C1435      C1436   1.416       .  A
C1435      C1442   1.440       .  S
C1437      C1438   1.407       .  A
C1437      H1440   1.085       .  S
C1438      C1441   1.442       .  S
C1441      N1443   1.157       .  T
C1442      N1444   1.156       .  T
C1445      C1446   1.399       .  A
C1445      C1450   1.414       .  A
C1446      C1447   1.401       .  A
C1446      H1451   1.085       .  S
C1447      C1448   1.414       .  A
C1447      C1454   1.445       .  S
C1448      C1449   1.397       .  A
C1449      C1450   1.399       .  A
C1449      H1452   1.085       .  S
C1450      C1453   1.444       .  S
C1453      N1455   1.157       .  T
C1454      N1456   1.157       .  T
