geometry optimzed in LAMMPS
_audit_creation_date              2020-11-30 
_audit_creation_method            'lammps2cif' 
_symmetry_space_group_name_H-M    'P1' 
_symmetry_Int_Tables_number       1 
_symmetry_cell_setting            triclinic 
loop_ 
_symmetry_equiv_pos_as_xyz 
  x,y,z 
_cell_length_a                    21.40229403 
_cell_length_b                    30.446351959806922 
_cell_length_c                    31.410569749825264 
_cell_angle_alpha                 90.00887271379777 
_cell_angle_beta                  106.38582291895551 
_cell_angle_gamma                 89.81520979136823 
loop_ 
_atom_site_label 
_atom_site_type_symbol 
_atom_site_fract_x 
_atom_site_fract_y 
_atom_site_fract_z 
_atom_site_charge 
C1          C  0.58055465  0.20300758  0.46416335     0.01200
C2          C  0.92776762  0.20062267  0.06432918     0.01200
O3          O  0.49954549  0.07986507  0.49444280    -0.68100
O4          O  0.44855548  0.46481067  0.03120101    -0.68300
O5          O  0.50925651  0.04372038  0.08757961    -0.68200
O6          O  0.45118404  0.00448524  0.45341223    -0.68200
O7          O  0.55489393  0.48293449  0.46910602    -0.68200
O8          O  0.61354483  0.03199056  0.10358768    -0.68200
O9          O  0.55202300  0.45026395  0.04722120    -0.68100
O10         O  0.61857232  0.07081931  0.02824025    -0.68300
V11         V  0.50200362  0.02591219  0.02876298     1.35200
V12         V  0.60180551  0.01301639  0.04403933     1.35200
C13         C  0.57220747  0.09791593  0.01673431     0.81100
C14         C  0.49524741  0.43829789  0.04645535     0.81200
C15         C  0.56445871  0.04420248  0.11565472     0.81000
C16         C  0.50048012  0.48077912  0.43999524     0.81000
O17         O  0.99624572  0.02912464  0.46350130    -0.68100
O18         O  0.97870350  0.49162468  0.06222553    -0.68300
O19         O  0.96454345  0.06235806  0.03951576    -0.68200
O20         O  0.94208983  0.44924012  0.48828448    -0.68200
O21         O  0.07418794  0.46523039  0.99612114    -0.68200
O22         O  0.05866435  0.08187039  0.03237191    -0.68200
O23         O  0.11237644  0.00674847  0.07008291    -0.68100
O24         O  0.09431222  0.05548227  0.48494210    -0.68300
V25         V  0.97881335  0.00531751  0.01936236     1.35200
V26         V  0.06831327  0.02461001  0.01127170     1.35200
C27         C  0.04130200  0.05073129  0.45473349     0.81100
C28         C  0.03526605  0.48847274  0.08845988     0.81200
C29         C  0.00749870  0.09161265  0.04275389     0.81000
C30         C  0.02336144  0.44253411  0.98134462     0.81000
C31         C  0.41287812  0.32749158  0.06097589     0.01200
C32         C  0.08221656  0.32709794  0.46571085     0.01200
C33         C  0.11023934  0.45313938  0.21067519     0.01200
C34         C  0.43299770  0.44877381  0.31604777     0.01200
O35         O  0.46204458  0.28075716  0.20116656    -0.68100
O36         O  0.51502064  0.23930151  0.32150509    -0.68300
O37         O  0.47589474  0.31672174  0.28165127    -0.68200
O38         O  0.49898483  0.20239725  0.24115380    -0.68200
O39         O  0.60130541  0.21609426  0.24946379    -0.68200
O40         O  0.57449289  0.33385362  0.28194206    -0.68200
O41         O  0.61434023  0.25847067  0.32592640    -0.68100
O42         O  0.56368741  0.29207984  0.20513914    -0.68300
V43         V  0.48982377  0.26004759  0.26137278     1.35200
V44         V  0.58645359  0.27481211  0.26544408     1.35200
C45         C  0.50464622  0.29351979  0.18282170     0.81100
C46         C  0.57416678  0.24257834  0.34426589     0.81200
C47         C  0.52055382  0.34498549  0.28795015     0.81000
C48         C  0.55443095  0.18909643  0.24021908     0.81000
O49         O  0.10595082  0.27970136  0.32031282    -0.68100
O50         O  0.02500864  0.24324481  0.20091628    -0.67100
O51         O  0.07264393  0.31940399  0.24047050    -0.68200
O52         O  0.06082978  0.20364421  0.28023317    -0.68200
O53         O  0.96647868  0.21820990  0.29023325    -0.68200
O54         O  0.97732919  0.33494191  0.24824991    -0.68200
O55         O  0.93040110  0.25782796  0.21043583    -0.68100
O56         O  0.01031167  0.29533396  0.32740014    -0.68300
V57         V  0.06428240  0.26185486  0.26060064     1.35200
V58         V  0.97294303  0.27628451  0.26879841     1.35200
C59         C  0.07111957  0.29350820  0.34418779     0.81100
C60         C  0.96342785  0.24396335  0.18574987     0.81200
C61         C  0.02787161  0.34712453  0.23811895     0.81000
C62         C  0.01235497  0.19113932  0.29219106     0.81000
C63         C  0.63476598  0.07449003  0.23991419     0.01200
C64         C  0.95546666  0.08176251  0.33304146     0.01200
C65         C  0.88600441  0.07375765  0.31271641    -0.14900
C66         C  0.82832009  0.06816818  0.29841760     0.09200
C67         C  0.76042968  0.06467738  0.28179872     0.11100
C68         C  0.70259851  0.06612083  0.26505902    -0.15700
C69         C  0.00990559  0.14517995  0.30582989    -0.12800
C70         C  0.96733132  0.13030298  0.32675996    -0.28000
H71         H  0.04358511  0.12283017  0.29675526     0.16200
H72         H  0.93684042  0.15390184  0.33770874     0.16800
C73         C  0.56367258  0.14249832  0.23052081    -0.12800
C74         C  0.62279200  0.12353201  0.24320472    -0.28000
H75         H  0.52059453  0.12260837  0.21728476     0.16200
H76         H  0.66421938  0.14430942  0.25899368     0.16800
C77         C  0.59225304  0.04820501  0.25988090    -0.14900
C78         C  0.55583324  0.02651466  0.27454110     0.09200
C79         C  0.51200776  0.00098184  0.29048438     0.11100
C80         C  0.46897106  0.48066429  0.29662803    -0.15700
C81         C  0.45569152  0.40173244  0.31262658    -0.12800
C82         C  0.50893173  0.39044622  0.29990132    -0.28000
H83         H  0.42488671  0.37572436  0.31921324     0.16200
H84         H  0.54330619  0.41509770  0.29586141     0.16800
C85         C  0.07479052  0.48423622  0.23154773    -0.14900
C86         C  0.05233758  0.00530557  0.26560908     0.09200
C87         C  0.01967278  0.03002382  0.29063432     0.11100
C88         C  0.99118701  0.05233891  0.31079448    -0.15700
C89         C  0.08791621  0.40584394  0.21251758    -0.12800
C90         C  0.03651193  0.39326796  0.22664715    -0.28000
H91         H  0.11812230  0.38055269  0.20376533     0.16200
H92         H  0.00291645  0.41727621  0.23327138     0.16800
C93         C  0.17988312  0.45499628  0.23524571    -0.14900
C94         C  0.23782070  0.45487737  0.25299612     0.09200
C95         C  0.30588005  0.45346601  0.27275113     0.11100
C96         C  0.36370126  0.45160786  0.29071004    -0.15700
C97         C  0.09965603  0.30581880  0.39109978    -0.12800
C98         C  0.06108067  0.32006224  0.41584929    -0.28000
H99         H  0.15148858  0.30066420  0.40563465     0.16200
H100        H  0.00943738  0.32495800  0.39972963     0.16800
C101        C  0.48838862  0.31007917  0.13663473    -0.12800
C102        C  0.42740900  0.31328788  0.10948018    -0.28000
H103        H  0.52907522  0.31882496  0.12418244     0.16200
H104        H  0.38721560  0.30322391  0.12207025     0.16800
C105        C  0.34381570  0.31875669  0.03834273    -0.14900
C106        C  0.28707796  0.31454974  0.01837759     0.09200
C107        C  0.22025447  0.31397297  0.99503153     0.11100
C108        C  0.15264909  0.31930031  0.48586071    -0.15700
C109        C  0.06677147  0.37372064  0.47665662    -0.12800
C110        C  0.00584648  0.38974273  0.47110939    -0.28000
H111        H  0.10791726  0.39497354  0.49164169     0.16200
H112        H  0.96357358  0.36910866  0.45773782     0.16800
C113        C  0.97073451  0.06961267  0.38146910    -0.12800
C114        C  0.03102223  0.06948721  0.40994323    -0.28000
H115        H  0.93052441  0.05811075  0.39341168     0.16200
H116        H  0.07227839  0.08157495  0.39970696     0.16800
C117        C  0.04392320  0.47060019  0.13334372    -0.12800
C118        C  0.10259989  0.46724513  0.16323270    -0.28000
H119        H  0.00061609  0.46138949  0.14275414     0.16200
H120        H  0.14565755  0.47661881  0.15349039     0.16800
C121        C  0.48483302  0.39358029  0.06158241    -0.12800
C122        C  0.42500209  0.37637136  0.05562953    -0.28000
H123        H  0.52751570  0.37293292  0.07361151     0.16200
H124        H  0.38313815  0.39754545  0.04178249     0.16800
C125        C  0.57003933  0.05884555  0.16120663    -0.12800
C126        C  0.62745212  0.06033654  0.19245640    -0.28000
H127        H  0.52558942  0.06773534  0.16931148     0.16200
H128        H  0.67082258  0.04999205  0.18340346     0.16800
C129        C  0.49598483  0.46304389  0.39544625    -0.12800
C130        C  0.43870781  0.46107403  0.36375005    -0.28000
H131        H  0.54054903  0.45363368  0.38773239     0.16200
H132        H  0.39466370  0.47049675  0.37231450     0.16800
C133        C  0.95994351  0.21143022  0.11291439    -0.12800
C134        C  0.92911135  0.22979471  0.14030191    -0.28000
H135        H  0.01218562  0.20587468  0.12529352     0.16200
H136        H  0.87698165  0.23564502  0.12918174     0.16800
C137        C  0.04585980  0.29615199  0.48550247    -0.14900
C138        C  0.02510710  0.27901472  0.99985044     0.09200
C139        C  0.98759602  0.25212809  0.01946433     0.11100
C140        C  0.95802616  0.22891527  0.03795271    -0.15700
C141        C  0.93908758  0.15273779  0.05515032    -0.12800
C142        C  0.99846686  0.13652782  0.05735265    -0.28000
H143        H  0.89713826  0.13119963  0.04395653     0.16200
H144        H  0.04068060  0.15791525  0.06658529     0.16800
C145        C  0.55842348  0.21493287  0.41496361    -0.12800
C146        C  0.59799110  0.22878588  0.39125129    -0.28000
H147        H  0.50642102  0.21326237  0.39851400     0.16200
H148        H  0.64995728  0.23150741  0.40681297     0.16800
C149        C  0.54847495  0.23371027  0.48734987    -0.14900
C150        C  0.52838051  0.25862364  0.00060763     0.09200
C151        C  0.48614393  0.28144884  0.02021030     0.11100
C152        C  0.45151605  0.30118476  0.03801045    -0.15700
C153        C  0.55410111  0.15771953  0.46977097    -0.12800
C154        C  0.59025205  0.12297734  0.48902974    -0.28000
H155        H  0.50137312  0.15417149  0.45894124     0.16200
H156        H  0.64300120  0.12447335  0.49918798     0.16800
C157        C  0.65232249  0.20631526  0.48497307    -0.14900
C158        C  0.73099123  0.21490266  0.01214222     0.09200
C159        C  0.79861881  0.21322905  0.03365483     0.11100
C160        C  0.85675482  0.20914311  0.04946696    -0.15700
C161        C  0.60489529  0.20806633  0.96651194     0.01200
C162        C  0.90800739  0.19504589  0.56054442     0.01200
O163        O  0.51499798  0.08506178  0.01367897    -0.68100
O164        O  0.44286417  0.46530514  0.52847365    -0.68300
O165        O  0.47406964  0.05188654  0.56917332    -0.68200
O166        O  0.48962934  0.00832627  0.96943297    -0.68200
O167        O  0.55480407  0.48169199  0.96757259    -0.68200
O168        O  0.57059910  0.02261992  0.59034043    -0.68200
O169        O  0.54697521  0.45242631  0.54798377    -0.68100
O170        O  0.59569058  0.04999564  0.51599607    -0.68300
V171        V  0.46443544  0.02772650  0.51160062     1.35200
V172        V  0.55693260  0.99922398  0.53248386     1.35200
C173        C  0.56026804  0.08252592  0.49975864     0.81100
C174        C  0.48996927  0.43982458  0.54589578     0.81200
C175        C  0.52664201  0.04552445  0.59940179     0.81000
C176        C  0.49876585  0.48089352  0.94009231     0.81000
O177        O  0.93470671  0.02224229  0.96043766    -0.68100
O178        O  0.95851506  0.48639135  0.56809766    -0.68300
O179        O  0.97221775  0.06015066  0.53675657    -0.68200
O180        O  0.96909941  0.45921332  0.98118094    -0.68200
O181        O  0.04471874  0.46047767  0.49563242    -0.68200
O182        O  0.07127094  0.08476984  0.55958185    -0.68200
O183        O  0.11200419  0.00758372  0.60012924    -0.68100
O184        O  0.02737154  0.04344642  0.95206965    -0.68300
V185        V  0.00696476  0.00660407  0.52086974     1.35200
V186        V  0.10164941  0.03117939  0.54229577     1.35200
C187        C  0.96638088  0.03903792  0.93621961     0.81100
C188        C  0.01667152  0.48625962  0.59152136     0.81200
C189        C  0.01103006  0.09108111  0.55313759     0.81000
C190        C  0.99662111  0.43500871  0.48539956     0.81000
C191        C  0.40553415  0.33117039  0.56367347     0.01200
C192        C  0.09312348  0.32964701  0.95980097     0.01200
C193        C  0.09434713  0.45815620  0.71507787     0.01200
C194        C  0.41508168  0.45069904  0.81682119     0.01200
O195        O  0.44367815  0.28370403  0.69952401    -0.68100
O196        O  0.47280426  0.23607538  0.81521330    -0.68300
O197        O  0.44714949  0.31641261  0.77964407    -0.68200
O198        O  0.46993088  0.20290644  0.73536285    -0.68200
O199        O  0.57361834  0.21529135  0.74914173    -0.68200
O200        O  0.55069155  0.32893769  0.79259368    -0.68200
O201        O  0.57639905  0.24885759  0.82878179    -0.68100
O202        O  0.54732731  0.29572632  0.71242131    -0.68300
V203        V  0.46040858  0.26000961  0.75761435     1.35200
V204        V  0.55998572  0.27193520  0.77038153     1.35200
C205        C  0.49039756  0.29791916  0.68622456     0.81100
C206        C  0.52932270  0.23493019  0.84189164     0.81200
C207        C  0.49514588  0.34188642  0.79392230     0.81000
C208        C  0.52594821  0.18948485  0.73545342     0.81000
O209        O  0.09424845  0.27995033  0.81062739    -0.68100
O210        O  0.00361069  0.24253795  0.69385529    -0.67100
O211        O  0.05459359  0.31940953  0.73135114    -0.68200
O212        O  0.04510958  0.20374893  0.77389848    -0.68200
O213        O  0.95060127  0.21866867  0.78342359    -0.68200
O214        O  0.96397004  0.33615029  0.74584673    -0.68200
O215        O  0.91157568  0.26100352  0.70526111    -0.68100
O216        O  0.00141223  0.29365109  0.82327789    -0.68300
V217        V  0.04744344  0.26173269  0.75241450     1.35200
V218        V  0.95860205  0.27706568  0.76410203     1.35200
C219        C  0.06291520  0.29270321  0.83699280     0.81100
C220        C  0.94203736  0.24509163  0.67975269     0.81200
C221        C  0.01268387  0.34803605  0.73349931     0.81000
C222        C  0.99646646  0.19152733  0.78597501     0.81000
C223        C  0.60888142  0.07829151  0.72234553     0.01200
C224        C  0.93170125  0.07953974  0.81386367     0.01200
C225        C  0.86195398  0.06802078  0.79817020    -0.14900
C226        C  0.80380001  0.06453494  0.78272426     0.09200
C227        C  0.73589372  0.06589538  0.76273359     0.11100
C228        C  0.67842859  0.07027984  0.74476209    -0.15700
C229        C  0.99398741  0.14641199  0.80230961    -0.12800
C230        C  0.93735268  0.12754603  0.80237846    -0.28000
H231        H  0.03876356  0.12730198  0.81147197     0.16200
H232        H  0.89294204  0.14700599  0.79105136     0.16800
C233        C  0.53538048  0.14403734  0.72166796    -0.12800
C234        C  0.59538959  0.12693171  0.72732829    -0.28000
H235        H  0.49280563  0.12324643  0.71083035     0.16200
H236        H  0.63701168  0.14840226  0.74011594     0.16800
C237        C  0.57190074  0.05106650  0.74540904    -0.14900
C238        C  0.54339789  0.02920415  0.76585683     0.09200
C239        C  0.51131857  0.00401946  0.79087842     0.11100
C240        C  0.45183167  0.47967603  0.79500001    -0.15700
C241        C  0.42769812  0.40265820  0.80859306    -0.12800
C242        C  0.48698570  0.38620644  0.81083809    -0.28000
H243        H  0.38569783  0.38145233  0.79576916     0.16200
H244        H  0.52982463  0.40677648  0.82208858     0.16800
C245        C  0.05453475  0.48713740  0.73504220    -0.14900
C246        C  0.04791546  0.00362060  0.76116636     0.09200
C247        C  0.00275393  0.02931462  0.77543206     0.11100
C248        C  0.96729944  0.05167787  0.79025936    -0.15700
C249        C  0.07652193  0.40973182  0.71623535    -0.12800
C250        C  0.02203233  0.39486430  0.72499127    -0.28000
H251        H  0.11089429  0.38591498  0.71002181     0.16200
H252        H  0.98534242  0.41765284  0.72941900     0.16800
C253        C  0.16266467  0.46305957  0.74089098    -0.14900
C254        C  0.22004851  0.46464018  0.75956039     0.09200
C255        C  0.28775223  0.46329548  0.77937411     0.11100
C256        C  0.34550644  0.45922213  0.79584979    -0.15700
C257        C  0.09735358  0.30502250  0.88305780    -0.12800
C258        C  0.06477517  0.32182225  0.91034666    -0.28000
H259        H  0.14926146  0.29850923  0.89482762     0.16200
H260        H  0.01299266  0.32855237  0.89686965     0.16800
C261        C  0.47932581  0.31586149  0.64089915    -0.12800
C262        C  0.41912868  0.31893742  0.61244161    -0.28000
H263        H  0.52162462  0.32434766  0.63005406     0.16200
H264        H  0.37793806  0.30940126  0.62430363     0.16800
C265        C  0.33598137  0.32294379  0.54156006    -0.14900
C266        C  0.27844929  0.31870767  0.52371732     0.09200
C267        C  0.21064141  0.31713799  0.50311584     0.11100
C268        C  0.16278994  0.31812331  0.97700429    -0.15700
C269        C  0.08558200  0.37746131  0.97096360    -0.12800
C270        C  0.02749033  0.39727136  0.96561502    -0.28000
H271        H  0.12957716  0.39623498  0.98578694     0.16200
H272        H  0.98269273  0.37918821  0.95175100     0.16800
C273        C  0.96223534  0.07170096  0.86328134    -0.12800
C274        C  0.93194513  0.05193116  0.89029400    -0.28000
H275        H  0.01343051  0.08010647  0.87655396     0.16200
H276        H  0.88091665  0.04308311  0.87823656     0.16800
C277        C  0.02942145  0.47088327  0.63744741    -0.12800
C278        C  0.08751966  0.47230897  0.66774910    -0.28000
H279        H  0.98775878  0.45902533  0.64737139     0.16200
H280        H  0.12948020  0.48440107  0.65828970     0.16800
C281        C  0.47929514  0.39569021  0.56216203    -0.12800
C282        C  0.41905028  0.37932931  0.55653408    -0.28000
H283        H  0.52165407  0.37495389  0.57524945     0.16200
H284        H  0.37765664  0.40065249  0.54187788     0.16800
C285        C  0.53628469  0.06394683  0.64440036    -0.12800
C286        C  0.59555600  0.06401252  0.67421875    -0.28000
H287        H  0.49417695  0.07651694  0.65329626     0.16200
H288        H  0.63652309  0.05154675  0.66358011     0.16800
C289        C  0.48893878  0.46319887  0.89472121    -0.12800
C290        C  0.42904486  0.46186596  0.86577133    -0.28000
H291        H  0.53119934  0.45370019  0.88430402     0.16200
H292        H  0.38804623  0.47190437  0.87760328     0.16800
C293        C  0.93708494  0.20867879  0.60886232    -0.12800
C294        C  0.90605160  0.22980617  0.63464866    -0.28000
H295        H  0.98914842  0.20341468  0.62252363     0.16200
H296        H  0.85422213  0.23655465  0.62265387     0.16800
C297        C  0.05709775  0.30186297  0.98283861    -0.14900
C298        C  0.01160792  0.27252718  0.49991485     0.09200
C299        C  0.97049464  0.24606211  0.51700950     0.11100
C300        C  0.93851256  0.22336610  0.53423261    -0.15700
C301        C  0.92610375  0.14741725  0.55423629    -0.12800
C302        C  0.98894002  0.13463936  0.56352071    -0.28000
H303        H  0.88788909  0.12372204  0.54018982     0.16200
H304        H  0.02706229  0.15855962  0.57672365     0.16800
C305        C  0.59699900  0.22003413  0.91838504    -0.12800
C306        C  0.53880093  0.21882817  0.88753468    -0.28000
H307        H  0.63934650  0.23135201  0.90884579     0.16200
H308        H  0.49620115  0.20772252  0.89680504     0.16800
C309        C  0.56408639  0.23751599  0.98481813    -0.14900
C310        C  0.51703782  0.25637351  0.50518787     0.09200
C311        C  0.47733577  0.28127554  0.52514522     0.11100
C312        C  0.44361215  0.30284772  0.54214813    -0.15700
C313        C  0.58525444  0.16078034  0.97093534    -0.12800
C314        C  0.58597618  0.14407070  0.01063927    -0.28000
H315        H  0.57102122  0.13987165  0.94172745     0.16200
H316        H  0.60093779  0.16437794  0.04019612     0.16800
C317        C  0.67382475  0.21356211  0.99212684    -0.14900
C318        C  0.71031334  0.20651498  0.50367731     0.09200
C319        C  0.77813370  0.20423744  0.52592747     0.11100
C320        C  0.83624840  0.20081449  0.54343078    -0.15700
C321        C  0.61249280  0.69746211  0.46361087     0.01200
C322        C  0.94483401  0.70728057  0.07128925     0.01200
O323        O  0.47200513  0.57677148  0.48286003    -0.68100
O324        O  0.48585302  0.96738075  0.04343309    -0.68300
O325        O  0.47576247  0.54540713  0.06676430    -0.68200
O326        O  0.45064206  0.49528370  0.44957824    -0.68200
O327        O  0.54733357  0.97470310  0.47539004    -0.68200
O328        O  0.57916928  0.53067957  0.08283771    -0.68200
O329        O  0.59003160  0.95472842  0.06094274    -0.68100
O330        O  0.58263225  0.56206359  0.00343621    -0.68300
V331        V  0.46581305  0.52073251  0.00961254     1.35200
V332        V  0.56513038  0.50647573  0.02497400     1.35200
C333        C  0.53638459  0.58875039  0.98803076     0.81100
C334        C  0.53321035  0.94106194  0.05708044     0.81200
C335        C  0.53146061  0.54606798  0.09452555     0.81000
C336        C  0.49532614  0.98124219  0.44485849     0.81000
O337        O  0.90972200  0.52865240  0.45143695    -0.68100
O338        O  0.01904288  0.98760643  0.07881271    -0.68300
O339        O  0.96182276  0.57343848  0.02908652    -0.68200
O340        O  0.03857408  0.95245784  0.50395060    -0.68200
O341        O  0.08225012  0.96800021  0.99026039    -0.68200
O342        O  0.06536404  0.58138082  0.03696693    -0.68200
O343        O  0.08295977  0.50140996  0.07536940    -0.68100
O344        O  0.01098428  0.53711939  0.45260913    -0.68300
V345        V  0.96717198  0.51648525  0.00526512     1.35200
V346        V  0.06753940  0.52307292  0.01637762     1.35200
C347        C  0.95081671  0.53942758  0.43167715     0.81100
C348        C  0.08002054  0.99138108  0.09465398     0.81200
C349        C  0.01235205  0.59713178  0.04025843     0.81000
C350        C  0.04049885  0.93822695  0.98827358     0.81000
C351        C  0.45193644  0.82949732  0.06450112     0.01200
C352        C  0.11738678  0.82571034  0.47593497     0.01200
C353        C  0.11167665  0.95572852  0.21841613     0.01200
C354        C  0.42733051  0.95286539  0.31993015     0.01200
O355        O  0.42231977  0.77523382  0.20251216    -0.68100
O356        O  0.47007075  0.73111438  0.31853696    -0.68300
O357        O  0.43896367  0.81167679  0.28275306    -0.68200
O358        O  0.45846184  0.69574372  0.23852709    -0.68200
O359        O  0.55972794  0.71078802  0.24478367    -0.68200
O360        O  0.54048355  0.82391449  0.28696680    -0.68200
O361        O  0.57212380  0.74452907  0.32544718    -0.68100
O362        O  0.52329297  0.78894272  0.20614222    -0.68300
V363        V  0.44942025  0.75373415  0.26071040     1.35200
V364        V  0.54693404  0.76682867  0.26582060     1.35200
C365        C  0.46348548  0.78921194  0.18423133     0.81100
C366        C  0.52833184  0.72964725  0.34171467     0.81200
C367        C  0.48731402  0.83773029  0.29146320     0.81000
C368        C  0.51361857  0.68373613  0.23470889     0.81000
O369        O  0.09109615  0.78581186  0.33862522    -0.68100
O370        O  0.07135016  0.74130415  0.22268091    -0.67100
O371        O  0.08984739  0.82135715  0.25977031    -0.68200
O372        O  0.07175008  0.70595919  0.30100794    -0.68200
O373        O  0.96716661  0.71617786  0.28501491    -0.68200
O374        O  0.98517032  0.83097659  0.24422980    -0.68200
O375        O  0.96671772  0.75122591  0.20684395    -0.68100
O376        O  0.98650449  0.79558262  0.32322930    -0.68300
V377        V  0.07902469  0.76390780  0.28027087     1.35200
V378        V  0.97846804  0.77334878  0.26519700     1.35200
C379        C  0.04224328  0.79763510  0.35097127     0.81100
C380        C  0.01575732  0.73859401  0.19505408     0.81200
C381        C  0.04035708  0.84556365  0.24449176     0.81000
C382        C  0.01593684  0.69131518  0.29935640     0.81000
C383        C  0.60812511  0.57831761  0.21832422     0.01200
C384        C  0.93537349  0.58031084  0.31116745     0.01200
C385        C  0.86415300  0.57257299  0.29284733    -0.14900
C386        C  0.80552561  0.57052384  0.27746387     0.09200
C387        C  0.73682555  0.57138851  0.25878068     0.11100
C388        C  0.67858246  0.57386417  0.24165059    -0.15700
C389        C  0.00747264  0.64575995  0.31228741    -0.12800
C390        C  0.94753373  0.62836248  0.30440476    -0.28000
H391        H  0.05039329  0.62541276  0.32536005     0.16200
H392        H  0.90552086  0.64944483  0.29053255     0.16800
C393        C  0.52610087  0.63883701  0.22069153    -0.12800
C394        C  0.58759214  0.62575793  0.22255410    -0.28000
H395        H  0.48616143  0.61558836  0.21250762     0.16200
H396        H  0.62653203  0.64980727  0.23228831     0.16800
C397        C  0.57249950  0.54873289  0.24028521    -0.14900
C398        C  0.54020238  0.52739809  0.25847953     0.09200
C399        C  0.50112648  0.50332171  0.27946092     0.11100
C400        C  0.47412615  0.97916876  0.30365099    -0.15700
C401        C  0.43509706  0.90310574  0.31602816    -0.12800
C402        C  0.48420692  0.88438922  0.30370846    -0.28000
H403        H  0.39700646  0.88208290  0.32144448     0.16200
H404        H  0.52456806  0.90449419  0.30072775     0.16800
C405        C  0.07957888  0.98382203  0.24400420    -0.14900
C406        C  0.04206648  0.50736153  0.24794994     0.09200
C407        C  0.00206358  0.53235870  0.26755341     0.11100
C408        C  0.96955059  0.55347545  0.28586258    -0.15700
C409        C  0.10406094  0.90806933  0.22996770    -0.12800
C410        C  0.04596233  0.89007635  0.22765993    -0.28000
H411        H  0.14772441  0.88828301  0.24316380     0.16200
H412        H  0.00173872  0.90933980  0.21517068     0.16800
C413        C  0.18151829  0.96607832  0.23324333    -0.14900
C414        C  0.23933470  0.97006936  0.24879817     0.09200
C415        C  0.30630264  0.96916966  0.27061959     0.11100
C416        C  0.36206359  0.96392104  0.29186388    -0.15700
C417        C  0.04958670  0.81250565  0.39695896    -0.12800
C418        C  0.10810763  0.81338708  0.42765122    -0.28000
H419        H  0.00596082  0.82143492  0.40624466     0.16200
H420        H  0.15102081  0.80410674  0.41752340     0.16800
C421        C  0.43906300  0.80406166  0.13804786    -0.12800
C422        C  0.47715389  0.81845326  0.11372705    -0.28000
H423        H  0.38685280  0.80143536  0.12346120     0.16200
H424        H  0.52920424  0.82132615  0.12948835     0.16800
C425        C  0.38155510  0.82104263  0.04527099    -0.14900
C426        C  0.32333578  0.81846285  0.02947799     0.09200
C427        C  0.25510490  0.81951965  0.01084650     0.11100
C428        C  0.18740802  0.82061340  0.50017631    -0.15700
C429        C  0.09139588  0.87190301  0.47951616    -0.12800
C430        C  0.12777855  0.90571402  0.50030935    -0.28000
H431        H  0.03917117  0.87694495  0.46613756     0.16200
H432        H  0.18030899  0.90259363  0.51271381     0.16800
C433        C  0.96246896  0.56824360  0.36012594    -0.12800
C434        C  0.92558457  0.55325237  0.38508633    -0.28000
H435        H  0.01462638  0.57145895  0.37523202     0.16200
H436        H  0.87329340  0.55048577  0.37107371     0.16800
C437        C  0.11330409  0.97936160  0.14099570    -0.12800
C438        C  0.08086914  0.96419053  0.16911579    -0.28000
H439        H  0.16544384  0.98484621  0.15227436     0.16200
H440        H  0.02868503  0.95880573  0.15649623     0.16800
C441        C  0.52321645  0.89508327  0.06741148    -0.12800
C442        C  0.46349618  0.87744115  0.05706317    -0.28000
H443        H  0.56575722  0.87471917  0.08170745     0.16200
H444        H  0.42175905  0.89833972  0.04186524     0.16800
C445        C  0.53951056  0.56343753  0.13978970    -0.12800
C446        C  0.59807055  0.56485052  0.17021723    -0.28000
H447        H  0.49626260  0.57356931  0.14875949     0.16200
H448        H  0.64050434  0.55447674  0.16015340     0.16800
C449        C  0.48782622  0.96262056  0.40026131    -0.12800
C450        C  0.43221002  0.96639879  0.36724922    -0.28000
H451        H  0.52990165  0.94686802  0.39376798     0.16200
H452        H  0.39026775  0.98192427  0.37430074     0.16800
C453        C  0.95156563  0.72094074  0.11871879    -0.12800
C454        C  0.00918870  0.72154241  0.15003971    -0.28000
H455        H  0.90837397  0.73223202  0.12739882     0.16200
H456        H  0.05288542  0.71078564  0.14182220     0.16800
C457        C  0.08032051  0.79566844  0.49628515    -0.14900
C458        C  0.05826507  0.78098633  0.01365021     0.09200
C459        C  0.01853226  0.75739652  0.03454481     0.11100
C460        C  0.98475319  0.73604908  0.05160727    -0.15700
C461        C  0.96020491  0.65869695  0.06838592    -0.12800
C462        C  0.00962648  0.64307979  0.05410300    -0.28000
H463        H  0.92597858  0.63534178  0.07543702     0.16200
H464        H  0.04748329  0.66480535  0.04978515     0.16800
C465        C  0.60140282  0.70874206  0.41495903    -0.12800
C466        C  0.54169771  0.71142088  0.38675155    -0.28000
H467        H  0.64256199  0.71860607  0.40331397     0.16200
H468        H  0.49997646  0.70245771  0.39794886     0.16800
C469        C  0.57323971  0.72633975  0.48357813    -0.14900
C470        C  0.55831333  0.75029223  0.00684364     0.09200
C471        C  0.51960424  0.77840385  0.02442554     0.11100
C472        C  0.48748183  0.80185443  0.04089552    -0.15700
C473        C  0.59950428  0.64939094  0.47188630    -0.12800
C474        C  0.53944943  0.63314634  0.46758099    -0.28000
H475        H  0.64117207  0.62834496  0.48672336     0.16200
H476        H  0.49691682  0.65370162  0.45430428     0.16800
C477        C  0.68060123  0.70691117  0.48632370    -0.14900
C478        C  0.75227753  0.70847405  0.00629463     0.09200
C479        C  0.81943868  0.71287435  0.02645440     0.11100
C480        C  0.87668937  0.71297602  0.04547163    -0.15700
C481        C  0.62520801  0.69563991  0.96929908     0.01200
C482        C  0.92720777  0.70592041  0.57104353     0.01200
O483        O  0.47934130  0.57715197  0.98729698    -0.68100
O484        O  0.42555368  0.97666876  0.52766461    -0.68300
O485        O  0.46411021  0.54671454  0.56206293    -0.68200
O486        O  0.45151746  0.49657384  0.95200003    -0.68200
O487        O  0.59283372  0.99314035  0.98487216    -0.68200
O488        O  0.56817596  0.53366471  0.58189757    -0.68200
O489        O  0.52197483  0.94729861  0.54981070    -0.68100
O490        O  0.57619931  0.56422175  0.50301822    -0.68300
V491        V  0.45944714  0.52079278  0.50612668     1.35200
V492        V  0.55953748  0.50858498  0.52515357     1.35200
C493        C  0.52901476  0.58940789  0.48494190     0.81100
C494        C  0.46118324  0.94416409  0.54379033     0.81200
C495        C  0.51835231  0.54833304  0.59140065     0.81000
C496        C  0.53679709  0.99317521  0.95725483     0.81000
O497        O  0.95106893  0.54097186  0.94771730    -0.68100
O498        O  0.01295219  0.98293289  0.57752840    -0.68300
O499        O  0.93106822  0.56634933  0.53159119    -0.68200
O500        O  0.98959447  0.94761190  0.99926991    -0.68200
O501        O  0.13667615  0.97881100  0.52604922    -0.68200
O502        O  0.03152265  0.57661997  0.53156534    -0.68200
O503        O  0.06049929  0.49963237  0.57450630    -0.68100
O504        O  0.05555023  0.54482417  0.95770086    -0.68300
V505        V  0.93730981  0.50788916  0.50993289     1.35200
V506        V  0.03502042  0.51822253  0.51353430     1.35200
C507        C  0.99833125  0.55060306  0.93281000     0.81100
C508        C  0.06526813  0.98686362  0.60815524     0.81200
C509        C  0.98020668  0.59147356  0.53804912     0.81000
C510        C  0.09927145  0.94743270  0.50982500     0.81000
C511        C  0.44389935  0.82102762  0.57046074     0.01200
C512        C  0.12720524  0.82987423  0.97229485     0.01200
C513        C  0.13060524  0.95380313  0.73195959     0.01200
C514        C  0.44874741  0.95594996  0.83737077     0.01200
O515        O  0.42689136  0.78768278  0.71427519    -0.68100
O516        O  0.47571536  0.73621010  0.82803773    -0.68300
O517        O  0.45354893  0.81889372  0.79704910    -0.68200
O518        O  0.45284341  0.70444358  0.74586548    -0.68200
O519        O  0.55555973  0.71226838  0.75101793    -0.68200
O520        O  0.55420257  0.82662462  0.79642531    -0.68200
O521        O  0.57803699  0.74563674  0.83264820    -0.68100
O522        O  0.52846738  0.79218658  0.71477022    -0.68300
V523        V  0.45415534  0.76192747  0.77125336     1.35200
V524        V  0.55210022  0.76907477  0.77373276     1.35200
C525        C  0.46872974  0.79853956  0.69502726     0.81100
C526        C  0.53453065  0.73214410  0.84980865     0.81200
C527        C  0.50423072  0.84253019  0.80428068     0.81000
C528        C  0.50540279  0.68858399  0.74109355     0.81000
O529        O  0.08983650  0.78364092  0.83664980    -0.68100
O530        O  0.06185440  0.73643635  0.72103243    -0.67100
O531        O  0.09161978  0.81648151  0.75761394    -0.68200
O532        O  0.05953965  0.70393187  0.79992242    -0.68200
O533        O  0.95663020  0.72000626  0.78482233    -0.68200
O534        O  0.98863899  0.83221671  0.74291451    -0.68200
O535        O  0.95897617  0.75258050  0.70618339    -0.68100
O536        O  0.98692282  0.79943073  0.82225360    -0.68300
V537        V  0.07374205  0.76048520  0.77853429     1.35200
V538        V  0.97483346  0.77579253  0.76435133     1.35200
C539        C  0.04325963  0.79925940  0.84932474     0.81100
C540        C  0.00560914  0.73626180  0.69400309     0.81200
C541        C  0.04546234  0.84359511  0.74324286     0.81000
C542        C  0.00233010  0.69262940  0.79891145     0.81000
C543        C  0.58555231  0.58096156  0.71534010     0.01200
C544        C  0.91126818  0.58512490  0.81111518     0.01200
C545        C  0.84044282  0.57949521  0.79071271    -0.14900
C546        C  0.78192443  0.57724476  0.77557949     0.09200
C547        C  0.71326229  0.57677745  0.75782243     0.11100
C548        C  0.65505603  0.57788584  0.74070974    -0.15700
C549        C  0.98923114  0.64785997  0.81222456    -0.12800
C550        C  0.92793532  0.63289502  0.80526285    -0.28000
H551        H  0.03037805  0.62580046  0.82404239     0.16200
H552        H  0.88786065  0.65558170  0.79155105     0.16800
C553        C  0.51069114  0.64257287  0.72749118    -0.12800
C554        C  0.56452319  0.62865567  0.71677006    -0.28000
H555        H  0.47356304  0.61957611  0.73052432     0.16200
H556        H  0.59806210  0.65323167  0.71101581     0.16800
C557        C  0.54881005  0.55082604  0.73610302    -0.14900
C558        C  0.51840734  0.52787172  0.75438485     0.09200
C559        C  0.48245964  0.50207520  0.77640915     0.11100
C560        C  0.48384277  0.98248977  0.81225947    -0.15700
C561        C  0.46030052  0.90666721  0.83520215    -0.12800
C562        C  0.50537697  0.88885676  0.81806223    -0.28000
H563        H  0.42662362  0.88485341  0.84501185     0.16200
H564        H  0.54258093  0.90935929  0.81096010     0.16800
C565        C  0.08653747  0.98151966  0.74911497    -0.14900
C566        C  0.02001579  0.50918347  0.75113779     0.09200
C567        C  0.97913771  0.53410382  0.77035390     0.11100
C568        C  0.94620585  0.55607272  0.78778653    -0.15700
C569        C  0.11713477  0.90516470  0.73675854    -0.12800
C570        C  0.05685322  0.88825597  0.72860981    -0.28000
H571        H  0.15822868  0.88386294  0.75225470     0.16200
H572        H  0.01461257  0.90904136  0.71510448     0.16800
C573        C  0.19740042  0.96243601  0.75898529    -0.14900
C574        C  0.25411186  0.96608043  0.77864486     0.09200
C575        C  0.32144756  0.96623345  0.79936389     0.11100
C576        C  0.37913161  0.96312532  0.81629797    -0.15700
C577        C  0.05398105  0.81613373  0.89491786    -0.12800
C578        C  0.11370032  0.81624031  0.92407839    -0.28000
H579        H  0.01206338  0.82713173  0.90508671     0.16200
H580        H  0.15459887  0.80475650  0.91278677     0.16800
C581        C  0.44697436  0.81827605  0.65063090    -0.12800
C582        C  0.46858396  0.80326485  0.61728946    -0.28000
H583        H  0.40803394  0.84251626  0.64407195     0.16200
H584        H  0.50445708  0.77680134  0.62421923     0.16800
C585        C  0.37200801  0.81726538  0.55361687    -0.14900
C586        C  0.31343899  0.81630335  0.53820077     0.09200
C587        C  0.24518748  0.81765751  0.51841013     0.11100
C588        C  0.19716337  0.82307707  0.99419386    -0.15700
C589        C  0.11150079  0.87816255  0.97682451    -0.12800
C590        C  0.05140655  0.89304824  0.97502606    -0.28000
H591        H  0.15197605  0.90116287  0.98633818     0.16200
H592        H  0.01050689  0.87050390  0.96813569     0.16800
C593        C  0.92641250  0.57216595  0.85972437    -0.12800
C594        C  0.98709421  0.56737191  0.88712578    -0.28000
H595        H  0.88553542  0.56435939  0.87260896     0.16200
H596        H  0.02919461  0.57357023  0.87528251     0.16800
C597        C  0.06993125  0.96806591  0.65216314    -0.12800
C598        C  0.12620327  0.96701365  0.68462666    -0.28000
H599        H  0.02552062  0.95644141  0.65845909     0.16200
H600        H  0.16993859  0.97884363  0.67719071     0.16800
C601        C  0.43178841  0.90283309  0.55300602    -0.12800
C602        C  0.46894750  0.86742904  0.56891927    -0.28000
H603        H  0.37905885  0.90080875  0.54318248     0.16200
H604        H  0.52165178  0.87112960  0.57896517     0.16800
C605        C  0.52270324  0.56585832  0.63602026    -0.12800
C606        C  0.57960561  0.56676644  0.66811646    -0.28000
H607        H  0.47827502  0.57667056  0.64324678     0.16200
H608        H  0.62345945  0.55586841  0.66001095     0.16800
C609        C  0.52555246  0.97509173  0.91206796    -0.12800
C610        C  0.46456568  0.97209460  0.88472634    -0.28000
H611        H  0.56687880  0.96411576  0.90108978     0.16200
H612        H  0.42420131  0.98336531  0.89673991     0.16800
C613        C  0.93710451  0.71994294  0.61865077    -0.12800
C614        C  0.99541706  0.71791174  0.64915771    -0.28000
H615        H  0.89609529  0.73409900  0.62800933     0.16200
H616        H  0.03701242  0.70426216  0.64026962     0.16800
C617        C  0.09082028  0.80183769  0.99523385    -0.14900
C618        C  0.04676365  0.77443908  0.51365603     0.09200
C619        C  0.00552494  0.75169635  0.53406624     0.11100
C620        C  0.96999030  0.73196212  0.55105886    -0.15700
C621        C  0.93531109  0.65639761  0.56747549    -0.12800
C622        C  0.97962661  0.63803109  0.55012441    -0.28000
H623        H  0.90053065  0.63521495  0.57683229     0.16200
H624        H  0.01732827  0.65798600  0.54301191     0.16800
C625        C  0.61054334  0.70742054  0.92049763    -0.12800
C626        C  0.54962417  0.71286179  0.89446597    -0.28000
H627        H  0.65073604  0.71561654  0.90703690     0.16200
H628        H  0.50874557  0.70579536  0.90739943     0.16800
C629        C  0.59017182  0.72580603  0.99120480    -0.14900
C630        C  0.53975866  0.74842236  0.50020500     0.09200
C631        C  0.50163520  0.77320631  0.52128995     0.11100
C632        C  0.47248314  0.79441432  0.54182083    -0.15700
C633        C  0.60941055  0.64803246  0.97723672    -0.12800
C634        C  0.54851854  0.63298999  0.97247241    -0.28000
H635        H  0.65001265  0.62585336  0.99119767     0.16200
H636        H  0.50697652  0.65464731  0.96030825     0.16800
C637        C  0.69496124  0.70282774  0.98979684    -0.14900
C638        C  0.73697526  0.71358883  0.50455673     0.09200
C639        C  0.80338977  0.71752058  0.52633477     0.11100
C640        C  0.86013248  0.71554998  0.54599153    -0.15700
loop_ 
_geom_bond_atom_site_label_1 
_geom_bond_atom_site_label_2 
_geom_bond_distance 
_geom_bond_site_symmetry_2 
_ccdc_geom_bond_type 
C1          C145   1.527       .  S
C1          C153   1.521       .  S
C1          C149   1.467       .  S
C1          C157   1.494       .  S
C2          C133   1.523       .  S
C2          C141   1.518       .  S
C2          C140   1.468       .  S
C2          C160   1.481       .  S
O3          V171   1.900       .  S
O3          C173   1.266       .  A
O4          V331   1.908       .  S
O4           C14   1.267       .  A
O5           V11   1.889       .  S
O5           C15   1.259       .  A
O6          V171   1.905       .  S
O6          C336   1.267   1_545  A
O7          V492   1.903       .  S
O7           C16   1.263       .  A
O8           V12   1.905       .  S
O8           C15   1.268       .  A
O9          V332   1.900       .  S
O9           C14   1.263       .  A
O10          V12   1.891       .  S
O10          C13   1.260       .  A
V11         O163   1.903       .  S
V11         O324   1.898   1_545  S
V11         O166   1.885   1_554  S
V11          V12   2.089       .  T
V12         O487   1.912   1_544  S
V12         O329   1.890   1_545  S
C13         O163   1.264       .  A
C13         C314   1.460       .  S
C14         C121   1.480       .  S
C15         C125   1.471       .  S
C16         O326   1.265       .  A
C16         C129   1.478       .  S
O17         V185   1.880   1_655  S
O17          C27   1.262   1_655  A
O18         V345   1.893       .  S
O18          C28   1.261   1_655  A
O19          V25   1.901       .  S
O19          C29   1.265   1_655  A
O20         V505   1.923       .  S
O20         C190   1.271       .  A
O21         V346   1.891   1_556  S
O21          C30   1.263       .  A
O22          V26   1.896       .  S
O22          C29   1.262       .  A
O23          V26   1.900       .  S
O23         C348   1.264   1_545  A
O24         V186   1.912       .  S
O24          C27   1.266       .  A
V25         O177   1.896   1_554  S
V25         O338   1.900   1_645  S
V25         O500   1.902   1_544  S
V25          V26   2.088   1_655  T
V26         O341   1.898   1_544  S
V26         O184   1.906   1_554  S
C27         C114   1.476       .  S
C28         O343   1.267       .  A
C28         C117   1.473       .  S
C29         C142   1.472   1_455  S
C30         O180   1.265   1_455  A
C30         C270   1.475       .  S
C31         C102   1.529       .  S
C31         C122   1.529       .  S
C31         C105   1.473       .  S
C31         C152   1.476       .  S
C32          C98   1.518       .  S
C32         C109   1.518       .  S
C32         C108   1.479       .  S
C32         C137   1.469       .  S
C33          C89   1.525       .  S
C33         C118   1.515       .  S
C33          C85   1.476       .  S
C33          C93   1.474       .  S
C34          C81   1.524       .  S
C34         C130   1.516       .  S
C34          C80   1.476       .  S
C34          C96   1.474       .  S
O35          V43   1.921       .  S
O35          C45   1.270       .  A
O36          V43   1.919       .  S
O36          C46   1.270       .  A
O37          V43   1.891       .  S
O37          C47   1.262       .  A
O38          V43   1.895       .  S
O38          C48   1.261       .  A
O39          V44   1.907       .  S
O39          C48   1.268       .  A
O40          V44   1.907       .  S
O40          C47   1.266       .  A
O41          V44   1.890       .  S
O41          C46   1.260       .  A
O42          V44   1.892       .  S
O42          C45   1.261       .  A
V43          V44   2.086       .  T
C45         C101   1.481       .  S
C46         C146   1.479       .  S
C47          C82   1.473       .  S
C48          C73   1.475       .  S
O49          V57   1.915       .  S
O49          C59   1.268       .  A
O50          V57   1.912       .  S
O50          C60   1.269   1_455  A
O51          V57   1.889       .  S
O51          C61   1.261       .  A
O52          V57   1.885       .  S
O52          C62   1.259       .  A
O53          V58   1.911       .  S
O53          C62   1.268   1_655  A
O54          V58   1.911       .  S
O54          C61   1.267   1_655  A
O55          V58   1.889       .  S
O55          C60   1.259       .  A
O56          V58   1.881   1_455  S
O56          C59   1.260       .  A
V57          V58   2.088   1_455  T
C59          C97   1.476       .  S
C60         C134   1.474       .  S
C61          C90   1.476       .  S
C62          C69   1.469       .  S
C63          C74   1.523       .  S
C63         C126   1.517       .  S
C63          C68   1.465       .  S
C63          C77   1.479       .  S
C64          C70   1.523       .  S
C64         C113   1.509       .  S
C64          C65   1.464       .  S
C64          C88   1.474       .  S
C65          C66   1.201       .  T
C66          C67   1.403       .  S
C67          C68   1.201       .  T
C69          C70   1.345   1_455  D
C69          H71   1.085       .  S
C70          H72   1.088       .  S
C73          C74   1.343       .  D
C73          H75   1.085       .  S
C74          H76   1.090       .  S
C77          C78   1.209       .  T
C78          C79   1.416       .  S
C79         C400   1.209   1_545  T
C80         C399   1.205       .  T
C81          C82   1.353       .  D
C81          H83   1.089       .  S
C82          H84   1.085       .  S
C85         C406   1.205       .  T
C86         C405   1.204   1_545  T
C86          C87   1.407       .  S
C87          C88   1.204   1_455  T
C89          C90   1.354       .  D
C89          H91   1.088       .  S
C90          H92   1.084       .  S
C93          C94   1.208       .  T
C94          C95   1.414       .  S
C95          C96   1.208       .  T
C97          C98   1.354       .  D
C97          H99   1.085       .  S
C98         H100   1.088       .  S
C101        C102   1.346       .  D
C101        H103   1.084       .  S
C102        H104   1.088       .  S
C105        C106   1.206       .  T
C106        C107   1.411   1_554  S
C107        C268   1.206       .  T
C108        C267   1.208       .  T
C109        C110   1.355       .  D
C109        H111   1.089       .  S
C110        C190   1.479   1_455  S
C110        H112   1.086   1_455  S
C113        C114   1.347   1_655  D
C113        H115   1.090       .  S
C114        H116   1.087       .  S
C117        C118   1.343       .  D
C117        H119   1.087       .  S
C118        H120   1.089       .  S
C121        C122   1.348       .  D
C121        H123   1.084       .  S
C122        H124   1.088       .  S
C125        C126   1.340       .  D
C125        H127   1.085       .  S
C126        H128   1.090       .  S
C129        C130   1.345       .  D
C129        H131   1.086       .  S
C130        H132   1.088       .  S
C133        C134   1.344       .  D
C133        H135   1.088   1_655  S
C134        H136   1.085       .  S
C137        C298   1.204       .  T
C138        C297   1.203       .  T
C138        C139   1.406   1_456  S
C139        C140   1.203       .  T
C141        C142   1.345       .  D
C141        H143   1.089       .  S
C142        H144   1.086   1_655  S
C145        C146   1.345       .  D
C145        H147   1.088       .  S
C146        H148   1.085       .  S
C149        C310   1.205       .  T
C150        C309   1.206   1_554  T
C150        C151   1.410       .  S
C151        C152   1.206       .  T
C153        C154   1.347       .  D
C153        H155   1.089       .  S
C154        C173   1.473       .  S
C154        H156   1.084       .  S
C157        C318   1.214       .  T
C158        C317   1.208   1_554  T
C158        C159   1.415       .  S
C159        C160   1.209       .  T
C161        C305   1.517       .  S
C161        C313   1.518       .  S
C161        C309   1.475       .  S
C161        C317   1.478       .  S
C162        C293   1.527       .  S
C162        C301   1.527       .  S
C162        C300   1.470       .  S
C162        C320   1.487       .  S
O164        V491   1.902       .  S
O164        C174   1.266       .  A
O165        V171   1.909       .  S
O165        C175   1.265       .  A
O166        C496   1.262   1_545  A
O167        V332   1.909   1_556  S
O167        C176   1.265       .  A
O168        V172   1.896   1_545  S
O168        C175   1.265       .  A
O169        V492   1.903       .  S
O169        C174   1.264       .  A
O170        V172   1.897   1_545  S
O170        C173   1.262       .  A
V171        O484   1.900   1_545  S
V171        V172   2.088   1_545  T
V172        O327   1.900       .  S
V172        O489   1.896       .  S
C174        C281   1.479       .  S
C175        C285   1.480       .  S
C176        O486   1.265       .  A
C176        C289   1.482       .  S
O177        C187   1.262       .  A
O178        V505   1.872       .  S
O178        C188   1.255   1_655  A
O179        V185   1.913   1_655  S
O179        C189   1.267   1_655  A
O180        V345   1.906   1_556  S
O181        V506   1.874       .  S
O181        C190   1.258   1_455  A
O182        V186   1.890       .  S
O182        C189   1.261       .  A
O183        V186   1.907       .  S
O183        C508   1.268   1_545  A
O184        C187   1.267   1_455  A
V185        O498   1.891   1_545  S
V185        O340   1.911   1_545  S
V185        V186   2.088       .  T
V186        O501   1.890   1_545  S
C187        C274   1.475       .  S
C188        O503   1.271       .  A
C188        C277   1.467       .  S
C189        C302   1.474   1_455  S
C191        C262   1.522       .  S
C191        C282   1.524       .  S
C191        C265   1.477       .  S
C191        C312   1.473       .  S
C192        C258   1.519       .  S
C192        C269   1.516       .  S
C192        C268   1.477       .  S
C192        C297   1.467       .  S
C193        C249   1.527       .  S
C193        C278   1.515       .  S
C193        C245   1.481       .  S
C193        C253   1.466       .  S
C194        C241   1.522       .  S
C194        C290   1.520       .  S
C194        C240   1.475       .  S
C194        C256   1.471       .  S
O195        V203   1.900       .  S
O195        C205   1.265       .  A
O196        V203   1.898       .  S
O196        C206   1.263       .  A
O197        V203   1.901       .  S
O197        C207   1.266       .  A
O198        V203   1.905       .  S
O198        C208   1.265       .  A
O199        V204   1.900       .  S
O199        C208   1.265       .  A
O200        V204   1.901       .  S
O200        C207   1.263       .  A
O201        V204   1.902       .  S
O201        C206   1.265       .  A
O202        V204   1.906       .  S
O202        C205   1.265       .  A
V203        V204   2.087       .  T
C205        C261   1.480       .  S
C206        C306   1.474       .  S
C207        C242   1.478       .  S
C208        C233   1.480       .  S
O209        V217   1.904       .  S
O209        C219   1.264       .  A
O210        V217   1.906       .  S
O210        C220   1.268   1_455  A
O211        V217   1.898       .  S
O211        C221   1.264       .  A
O212        V217   1.896       .  S
O212        C222   1.262   1_455  A
O213        V218   1.903       .  S
O213        C222   1.266       .  A
O214        V218   1.902       .  S
O214        C221   1.265   1_655  A
O215        V218   1.903       .  S
O215        C220   1.263       .  A
O216        V218   1.895   1_455  S
O216        C219   1.264       .  A
V217        V218   2.087   1_455  T
C219        C257   1.476       .  S
C220        C294   1.484       .  S
C221        C250   1.475       .  S
C222        C229   1.473       .  S
C223        C234   1.524       .  S
C223        C286   1.521       .  S
C223        C228   1.476       .  S
C223        C237   1.472       .  S
C224        C230   1.519       .  S
C224        C273   1.523       .  S
C224        C225   1.477       .  S
C224        C248   1.471       .  S
C225        C226   1.207       .  T
C226        C227   1.412       .  S
C227        C228   1.207       .  T
C229        C230   1.344       .  D
C229        H231   1.087   1_655  S
C230        H232   1.089       .  S
C233        C234   1.349       .  D
C233        H235   1.084       .  S
C234        H236   1.088       .  S
C237        C238   1.205       .  T
C238        C239   1.409       .  S
C239        C560   1.205   1_545  T
C240        C559   1.206       .  T
C241        C242   1.346       .  D
C241        H243   1.089       .  S
C242        H244   1.086       .  S
C245        C566   1.208       .  T
C246        C565   1.205   1_545  T
C246        C247   1.409       .  S
C247        C248   1.205   1_455  T
C249        C250   1.351       .  D
C249        H251   1.087       .  S
C250        H252   1.084   1_455  S
C253        C254   1.204       .  T
C254        C255   1.407       .  S
C255        C256   1.204       .  T
C257        C258   1.348       .  D
C257        H259   1.085       .  S
C258        H260   1.088       .  S
C261        C262   1.348       .  D
C261        H263   1.085       .  S
C262        H264   1.090       .  S
C265        C266   1.208       .  T
C266        C267   1.413       .  S
C269        C270   1.347       .  D
C269        H271   1.089       .  S
C270        H272   1.086   1_455  S
C273        C274   1.347       .  D
C273        H275   1.088   1_655  S
C274        H276   1.085       .  S
C277        C278   1.337       .  D
C277        H279   1.087   1_455  S
C278        H280   1.088       .  S
C281        C282   1.348       .  D
C281        H283   1.084       .  S
C282        H284   1.088       .  S
C285        C286   1.348       .  D
C285        H287   1.085       .  S
C286        H288   1.090       .  S
C289        C290   1.347       .  D
C289        H291   1.084       .  S
C290        H292   1.088       .  S
C293        C294   1.346       .  D
C293        H295   1.087       .  S
C294        H296   1.085       .  S
C298        C299   1.408   1_455  S
C299        C300   1.204       .  T
C301        C302   1.349       .  D
C301        H303   1.088       .  S
C302        H304   1.087   1_655  S
C305        C306   1.346       .  D
C305        H307   1.089       .  S
C306        H308   1.087       .  S
C310        C311   1.409       .  S
C311        C312   1.205       .  T
C313        C314   1.343   1_556  D
C313        H315   1.088       .  S
C314        H316   1.086       .  S
C318        C319   1.424       .  S
C319        C320   1.214       .  T
C321        C465   1.518       .  S
C321        C473   1.527       .  S
C321        C469   1.471       .  S
C321        C477   1.460       .  S
C322        C453   1.514       .  S
C322        C461   1.523       .  S
C322        C460   1.477       .  S
C322        C480   1.465       .  S
O323        V491   1.904       .  S
O323        C493   1.265       .  A
O324        C334   1.266       .  A
O325        V331   1.902       .  S
O325        C335   1.263       .  A
O326        V491   1.899       .  S
O327        C336   1.263       .  A
O328        V332   1.905       .  S
O328        C335   1.267       .  A
O329        C334   1.260       .  A
O330        V332   1.900       .  S
O330        C333   1.264   1_554  A
V331        O483   1.909   1_554  S
V331        O486   1.897   1_554  S
V331        V332   2.087       .  T
C333        O483   1.266       .  A
C333        C634   1.481       .  S
C334        C441   1.467       .  S
C335        C445   1.481       .  S
C336        C449   1.477       .  S
O337        V505   1.874       .  S
O337        C347   1.256       .  A
O338        C348   1.264       .  A
O339        V345   1.904       .  S
O339        C349   1.266   1_655  A
O340        C510   1.268       .  A
O341        C350   1.264       .  A
O342        V346   1.894       .  S
O342        C349   1.261       .  A
O343        V346   1.906       .  S
O344        V506   1.924       .  S
O344        C347   1.272   1_455  A
V345        O497   1.895   1_554  S
V345        V346   2.087   1_655  T
V346        O504   1.906   1_554  S
C347        C434   1.471       .  S
C348        C437   1.474       .  S
C349        C462   1.471       .  S
C350        O500   1.264   1_455  A
C350        C590   1.474       .  S
C351        C422   1.524       .  S
C351        C442   1.510       .  S
C351        C425   1.480       .  S
C351        C472   1.467       .  S
C352        C418   1.520       .  S
C352        C429   1.527       .  S
C352        C428   1.485       .  S
C352        C457   1.472       .  S
C353        C409   1.516       .  S
C353        C438   1.524       .  S
C353        C405   1.469       .  S
C353        C413   1.470       .  S
C354        C401   1.532       .  S
C354        C450   1.517       .  S
C354        C400   1.483       .  S
C354        C416   1.464       .  S
O355        V363   1.873       .  S
O355        C365   1.255       .  A
O356        V363   1.875       .  S
O356        C366   1.255       .  A
O357        V363   1.930       .  S
O357        C367   1.273       .  A
O358        V363   1.927       .  S
O358        C368   1.272       .  A
O359        V364   1.877       .  S
O359        C368   1.258       .  A
O360        V364   1.879       .  S
O360        C367   1.257       .  A
O361        V364   1.920       .  S
O361        C366   1.272       .  A
O362        V364   1.920       .  S
O362        C365   1.271       .  A
V363        V364   2.087       .  T
C365        C421   1.467       .  S
C366        C466   1.470       .  S
C367        C402   1.478       .  S
C368        C393   1.482       .  S
O369        V377   1.899       .  S
O369        C379   1.265       .  A
O370        V377   1.899       .  S
O370        C380   1.262       .  A
O371        V377   1.901       .  S
O371        C381   1.266       .  A
O372        V377   1.903       .  S
O372        C382   1.264       .  A
O373        V378   1.888       .  S
O373        C382   1.263   1_655  A
O374        V378   1.894       .  S
O374        C381   1.261   1_655  A
O375        V378   1.902       .  S
O375        C380   1.266   1_655  A
O376        V378   1.906       .  S
O376        C379   1.265   1_655  A
V377        V378   2.088   1_455  T
C379        C417   1.479       .  S
C380        C454   1.475       .  S
C381        C410   1.472       .  S
C382        C389   1.471       .  S
C383        C394   1.525       .  S
C383        C446   1.521       .  S
C383        C388   1.485       .  S
C383        C397   1.473       .  S
C384        C390   1.512       .  S
C384        C433   1.527       .  S
C384        C385   1.489       .  S
C384        C408   1.469       .  S
C385        C386   1.213       .  T
C386        C387   1.421       .  S
C387        C388   1.212       .  T
C389        C390   1.346   1_455  D
C389        H391   1.086       .  S
C390        H392   1.089       .  S
C393        C394   1.359       .  D
C393        H395   1.085       .  S
C394        H396   1.088       .  S
C397        C398   1.205       .  T
C398        C399   1.409       .  S
C401        C402   1.343       .  D
C401        H403   1.089       .  S
C402        H404   1.086       .  S
C406        C407   1.409       .  S
C407        C408   1.205   1_455  T
C409        C410   1.344       .  D
C409        H411   1.089       .  S
C410        H412   1.087       .  S
C413        C414   1.202       .  T
C414        C415   1.404       .  S
C415        C416   1.202       .  T
C417        C418   1.348       .  D
C417        H419   1.088       .  S
C418        H420   1.090       .  S
C421        C422   1.339       .  D
C421        H423   1.085       .  S
C422        H424   1.088       .  S
C425        C426   1.207       .  T
C426        C427   1.412       .  S
C427        C588   1.207   1_554  T
C428        C587   1.210       .  T
C429        C430   1.346       .  D
C429        H431   1.088       .  S
C430        C510   1.474       .  S
C430        H432   1.085       .  S
C433        C434   1.341       .  D
C433        H435   1.088   1_655  S
C434        H436   1.084       .  S
C437        C438   1.350       .  D
C437        H439   1.085       .  S
C438        H440   1.088       .  S
C441        C442   1.341       .  D
C441        H443   1.087       .  S
C442        H444   1.089       .  S
C445        C446   1.346       .  D
C445        H447   1.085       .  S
C446        H448   1.088       .  S
C449        C450   1.345       .  D
C449        H451   1.088       .  S
C450        H452   1.090       .  S
C453        C454   1.343   1_655  D
C453        H455   1.090       .  S
C454        H456   1.088       .  S
C457        C618   1.206       .  T
C458        C617   1.206   1_554  T
C458        C459   1.410       .  S
C459        C460   1.206   1_455  T
C461        C462   1.346   1_655  D
C461        H463   1.089       .  S
C462        H464   1.085       .  S
C465        C466   1.336       .  D
C465        H467   1.088       .  S
C466        H468   1.084       .  S
C469        C630   1.203       .  T
C470        C629   1.203   1_554  T
C470        C471   1.406       .  S
C471        C472   1.203       .  T
C473        C474   1.349       .  D
C473        H475   1.089       .  S
C474        C493   1.480       .  S
C474        H476   1.085       .  S
C477        C638   1.199       .  T
C478        C637   1.202   1_554  T
C478        C479   1.405       .  S
C479        C480   1.202       .  T
C481        C625   1.518       .  S
C481        C633   1.526       .  S
C481        C629   1.472       .  S
C481        C637   1.467       .  S
C482        C613   1.512       .  S
C482        C621   1.525       .  S
C482        C620   1.480       .  S
C482        C640   1.458       .  S
O484        C494   1.263       .  A
O485        V491   1.903       .  S
O485        C495   1.263       .  A
O487        C496   1.266       .  A
O488        V492   1.900       .  S
O488        C495   1.266       .  A
O489        C494   1.265       .  A
O490        V492   1.904       .  S
O490        C493   1.266       .  A
V491        V492   2.087       .  T
C494        C601   1.473       .  S
C495        C605   1.478       .  S
C496        C609   1.478       .  S
O497        C507   1.264       .  A
O498        C508   1.260       .  A
O499        V505   1.923       .  S
O499        C509   1.272       .  A
O501        C510   1.260       .  A
O502        V506   1.874       .  S
O502        C509   1.255   1_455  A
O503        V506   1.922       .  S
O504        C507   1.265   1_455  A
V505        V506   2.087   1_655  T
C507        C594   1.477       .  S
C508        C597   1.473       .  S
C509        C622   1.468       .  S
C511        C582   1.515       .  S
C511        C602   1.518       .  S
C511        C585   1.484       .  S
C511        C632   1.465       .  S
C512        C578   1.518       .  S
C512        C589   1.523       .  S
C512        C588   1.475       .  S
C512        C617   1.475       .  S
C513        C569   1.525       .  S
C513        C598   1.517       .  S
C513        C565   1.474       .  S
C513        C573   1.467       .  S
C514        C561   1.525       .  S
C514        C610   1.512       .  S
C514        C560   1.476       .  S
C514        C576   1.465       .  S
O515        V523   1.889       .  S
O515        C525   1.259       .  A
O516        V523   1.882       .  S
O516        C526   1.257       .  A
O517        V523   1.916       .  S
O517        C527   1.270       .  A
O518        V523   1.920       .  S
O518        C528   1.270       .  A
O519        V524   1.880       .  S
O519        C528   1.259       .  A
O520        V524   1.887       .  S
O520        C527   1.259       .  A
O521        V524   1.913       .  S
O521        C526   1.270       .  A
O522        V524   1.911       .  S
O522        C525   1.268       .  A
V523        V524   2.088       .  T
C525        C581   1.468       .  S
C526        C626   1.470       .  S
C527        C562   1.474       .  S
C528        C553   1.478       .  S
O529        V537   1.896       .  S
O529        C539   1.265       .  A
O530        V537   1.899       .  S
O530        C540   1.262       .  A
O531        V537   1.906       .  S
O531        C541   1.267       .  A
O532        V537   1.905       .  S
O532        C542   1.265       .  A
O533        V538   1.896       .  S
O533        C542   1.264   1_655  A
O534        V538   1.899       .  S
O534        C541   1.263   1_655  A
O535        V538   1.898       .  S
O535        C540   1.266   1_655  A
O536        V538   1.905       .  S
O536        C539   1.264   1_655  A
V537        V538   2.088   1_455  T
C539        C577   1.477       .  S
C540        C614   1.473   1_455  S
C541        C570   1.478       .  S
C542        C549   1.477   1_455  S
C543        C554   1.523       .  S
C543        C606   1.516       .  S
C543        C548   1.479       .  S
C543        C557   1.476       .  S
C544        C550   1.522       .  S
C544        C593   1.521       .  S
C544        C545   1.480       .  S
C544        C568   1.478       .  S
C545        C546   1.210       .  T
C546        C547   1.417       .  S
C547        C548   1.210       .  T
C549        C550   1.348       .  D
C549        H551   1.085   1_655  S
C550        H552   1.089       .  S
C553        C554   1.355       .  D
C553        H555   1.085       .  S
C554        H556   1.088       .  S
C557        C558   1.206       .  T
C558        C559   1.411       .  S
C561        C562   1.343       .  D
C561        H563   1.088       .  S
C562        H564   1.085       .  S
C566        C567   1.414   1_455  S
C567        C568   1.208       .  T
C569        C570   1.346       .  D
C569        H571   1.089       .  S
C570        H572   1.085       .  S
C573        C574   1.202       .  T
C574        C575   1.404       .  S
C575        C576   1.202       .  T
C577        C578   1.346       .  D
C577        H579   1.086       .  S
C578        H580   1.090       .  S
C581        C582   1.338       .  D
C581        H583   1.087       .  S
C582        H584   1.090       .  S
C585        C586   1.210       .  T
C586        C587   1.417       .  S
C589        C590   1.348       .  D
C589        H591   1.090       .  S
C590        H592   1.087       .  S
C593        C594   1.348       .  D
C593        H595   1.089       .  S
C594        H596   1.084   1_655  S
C597        C598   1.341       .  D
C597        H599   1.084       .  S
C598        H600   1.089       .  S
C601        C602   1.347       .  D
C601        H603   1.085       .  S
C602        H604   1.088       .  S
C605        C606   1.345       .  D
C605        H607   1.088       .  S
C606        H608   1.090       .  S
C609        C610   1.348       .  D
C609        H611   1.088       .  S
C610        H612   1.090       .  S
C613        C614   1.343       .  D
C613        H615   1.089       .  S
C614        H616   1.087   1_655  S
C618        C619   1.412       .  S
C619        C620   1.207   1_455  T
C621        C622   1.341       .  D
C621        H623   1.088       .  S
C622        H624   1.084   1_655  S
C625        C626   1.339       .  D
C625        H627   1.090       .  S
C626        H628   1.086       .  S
C630        C631   1.405       .  S
C631        C632   1.203       .  T
C633        C634   1.351       .  D
C633        H635   1.088       .  S
C634        H636   1.084       .  S
C638        C639   1.398       .  S
C639        C640   1.198       .  T
