geometry optimzed in LAMMPS
_audit_creation_date              2020-12-01 
_audit_creation_method            'lammps2cif' 
_symmetry_space_group_name_H-M    'P1' 
_symmetry_Int_Tables_number       1 
_symmetry_cell_setting            triclinic 
loop_ 
_symmetry_equiv_pos_as_xyz 
  x,y,z 
_cell_length_a                    28.49573297 
_cell_length_b                    26.229443544418114 
_cell_length_c                    27.778681142416602 
_cell_angle_alpha                 89.97508050250357 
_cell_angle_beta                  109.12364765555306 
_cell_angle_gamma                 89.93597846950922 
loop_ 
_atom_site_label 
_atom_site_type_symbol 
_atom_site_fract_x 
_atom_site_fract_y 
_atom_site_fract_z 
_atom_site_charge 
C1          C  0.66558445  0.19654077  0.48901798     0.85200
C2          C  0.64481030  0.21457646  0.43345681    -0.55100
C3          C  0.59424360  0.21447786  0.41400525     0.08100
C4          C  0.56871882  0.19529832  0.45156329     0.19100
C5          C  0.63956315  0.23182947  0.01706342    -0.55800
C6          C  0.58881081  0.23106327  0.49735412     0.08200
C7          C  0.64270253  0.14392030  0.48985128    -0.55300
C8          C  0.59195993  0.14318556  0.47188661     0.08800
H9          H  0.66735442  0.23096598  0.41262588     0.13300
H10         H  0.52756623  0.19432614  0.43527469    -0.01000
H11         H  0.65949868  0.25612609  0.04878882     0.13600
H12         H  0.66481819  0.11165857  0.00932191     0.13400
C13         C  0.88324807  0.19636770  0.08256083     0.85200
C14         C  0.90417930  0.21475661  0.13792424    -0.55100
C15         C  0.95474794  0.21464684  0.15716424     0.08100
C16         C  0.98013782  0.19494642  0.11960821     0.19100
C17         C  0.90908608  0.23141962  0.05415925    -0.55800
C18         C  0.95989490  0.23041978  0.07347608     0.08200
C19         C  0.90617476  0.14361099  0.08206011    -0.55300
C20         C  0.95692333  0.14273421  0.09988941     0.08800
H21         H  0.88174993  0.23134035  0.15878892     0.13300
H22         H  0.02126227  0.19435928  0.13625409    -0.01000
H23         H  0.88894622  0.25483586  0.02172382     0.13600
H24         H  0.88404300  0.11130388  0.06289567     0.13400
O25         O  0.52519622  0.47949509  0.48126314    -0.75700
O26         O  0.58915046  0.05268691  0.10472106    -0.75800
O27         O  0.52740912  0.47018666  0.07900018    -0.75800
O28         O  0.58669847  0.06161134  0.00777711    -0.75900
O29         O  0.52147446  0.11365141  0.99232112    -0.75800
O30         O  0.46218108  0.02222232  0.06353348    -0.75800
O31         O  0.52368673  0.10433841  0.09005631    -0.75800
O32         O  0.45973741  0.03115472  0.46659377    -0.75800
Ni33       Ni  0.55943123  0.01413105  0.04382112     1.25400
Ni34       Ni  0.48945266  0.06970581  0.02749591     1.25400
C35         C  0.48132237  0.99289970  0.45408785     0.86400
C36         C  0.56756274  0.09093792  0.11723011     0.86400
C37         C  0.48415311  0.48026031  0.08127830     0.86400
C38         C  0.56472649  0.10357435  0.99003547     0.86600
O39         O  0.08674783  0.02258106  0.00750844    -0.75700
O40         O  0.02737436  0.11288826  0.07962814    -0.75800
O41         O  0.08939400  0.03062084  0.10451295    -0.75800
O42         O  0.02486651  0.10467245  0.48169403    -0.75900
O43         O  0.95946758  0.05307724  0.46690606    -0.75800
O44         O  0.02399597  0.47902268  0.08971802    -0.75800
O45         O  0.96211617  0.06112000  0.06391115    -0.75800
O46         O  0.02148770  0.47081490  0.99178508    -0.75800
Ni47       Ni  0.05939403  0.06958010  0.04395812     1.25400
Ni48       Ni  0.98946894  0.01411943  0.02745903     1.25400
C49         C  0.06475751  0.48075192  0.98960344     0.86400
C50         C  0.98410342  0.10295334  0.08180777     0.86400
C51         C  0.06786775  0.99231306  0.11689481     0.86400
C52         C  0.98099448  0.09138039  0.45451819     0.86600
C53         C  0.38328451  0.38730779  0.08233992     0.85200
C54         C  0.40617162  0.43992051  0.08147365    -0.55100
C55         C  0.45691535  0.44064819  0.09942423     0.08100
C56         C  0.48015292  0.38853686  0.11976145     0.19100
C57         C  0.40928661  0.35199607  0.05429564    -0.55800
C58         C  0.46003972  0.35275446  0.07398823     0.08200
C59         C  0.40407568  0.36929521  0.13790790    -0.55300
C60         C  0.45464204  0.36938243  0.15734037     0.08800
H61         H  0.38405685  0.47218154  0.06200098     0.13300
H62         H  0.52130670  0.38950185  0.13603471    -0.01000
H63         H  0.38933735  0.32769269  0.02258196     0.13600
H64         H  0.38154546  0.35291182  0.15875615     0.13400
C65         C  0.16561787  0.38735828  0.48885160     0.85200
C66         C  0.14268243  0.44011341  0.48932826    -0.55100
C67         C  0.09193416  0.44097905  0.47150792     0.08100
C68         C  0.06872851  0.38875801  0.45181127     0.19100
C69         C  0.13978884  0.35231698  0.01727285    -0.55800
C70         C  0.08898007  0.35330699  0.49795947     0.08200
C71         C  0.14468870  0.36894206  0.43349849    -0.55300
C72         C  0.09411983  0.36904267  0.41426084     0.08800
H73         H  0.16480956  0.47242853  0.00847923     0.13300
H74         H  0.02760382  0.38933620  0.43516800    -0.01000
H75         H  0.15993319  0.32891274  0.04971641     0.13600
H76         H  0.16712446  0.35235804  0.41263972     0.13400
C77         C  0.16567795  0.44634671  0.23880711     0.85200
C78         C  0.14487868  0.46420074  0.18323435    -0.55100
C79         C  0.09432111  0.46410165  0.16388071     0.08100
C80         C  0.06882352  0.44492613  0.20151227     0.19100
C81         C  0.13966410  0.48181252  0.26668608    -0.55800
C82         C  0.08886127  0.48081982  0.24727425     0.08200
C83         C  0.14284788  0.39370914  0.23985452    -0.55300
C84         C  0.09211104  0.39285075  0.22187458     0.08800
H85         H  0.16737588  0.48057064  0.16234205     0.13300
H86         H  0.02772712  0.44426420  0.18466349    -0.01000
H87         H  0.15971910  0.00534817  0.29898450     0.13600
H88         H  0.16501468  0.36150543  0.25939134     0.13400
C89         C  0.38327426  0.44655863  0.33252853     0.85200
C90         C  0.40423916  0.46476314  0.38795208    -0.55100
C91         C  0.45481646  0.46471691  0.40711453     0.08100
C92         C  0.48016410  0.44513453  0.36946554     0.19100
C93         C  0.40905605  0.48177452  0.30420963    -0.55800
C94         C  0.45984620  0.48069013  0.32344199     0.08200
C95         C  0.40620250  0.39383352  0.33185845    -0.55300
C96         C  0.45694253  0.39295488  0.34966407     0.08800
H97         H  0.38183412  0.48124929  0.40889364     0.13300
H98         H  0.52130812  0.44459086  0.38595554    -0.01000
H99         H  0.38893054  0.00533555  0.27187796     0.13600
H100        H  0.38406650  0.36153839  0.31267003     0.13400
O101        O  0.52396169  0.22923542  0.33979023    -0.75700
O102        O  0.45951177  0.30303727  0.21682332    -0.75800
O103        O  0.52148306  0.22081292  0.24185962    -0.75800
O104        O  0.46211069  0.31130159  0.31379391    -0.75900
O105        O  0.52739415  0.36301895  0.32947052    -0.75800
O106        O  0.58676870  0.27252767  0.25753222    -0.75800
O107        O  0.52492641  0.35460409  0.23154257    -0.75800
O108        O  0.58937518  0.28080278  0.35450478    -0.75800
Ni109      Ni  0.48946860  0.26420561  0.27744953     1.25400
Ni110      Ni  0.55941458  0.31962957  0.29387895     1.25400
C111        C  0.56782294  0.24256491  0.36695835     0.86400
C112        C  0.48106461  0.34127940  0.20437554     0.86400
C113        C  0.56476103  0.23069365  0.23968495     0.86400
C114        C  0.48411606  0.35313401  0.33164583     0.86600
O115        O  0.02161898  0.36320072  0.24215279    -0.75700
O116        O  0.96198307  0.27242706  0.31355996    -0.75800
O117        O  0.02377524  0.35436978  0.33999259    -0.75800
O118        O  0.95967180  0.28104266  0.21665607    -0.75900
O119        O  0.02509230  0.22931795  0.23143353    -0.75800
O120        O  0.08919819  0.30264891  0.35476725    -0.75800
O121        O  0.02724816  0.22049238  0.32927476    -0.75800
O122        O  0.08688377  0.31126542  0.25786173    -0.75800
Ni123      Ni  0.98946133  0.31964851  0.27746668     1.25400
Ni124      Ni  0.05940690  0.26404235  0.29395773     1.25400
C125        C  0.06490905  0.35318231  0.24000367     0.86400
C126        C  0.98395728  0.23051181  0.33142183     0.86400
C127        C  0.06762463  0.34092218  0.36723473     0.86400
C128        C  0.98124365  0.24276677  0.20419057     0.86600
C129        C  0.66557384  0.13722152  0.23884368     0.85200
C130        C  0.64266793  0.18995501  0.23951916    -0.55100
C131        C  0.59193001  0.19086215  0.22167724     0.08100
C132        C  0.56868803  0.13869765  0.20184103     0.19100
C133        C  0.63974626  0.10200655  0.26711750    -0.55800
C134        C  0.58895835  0.10311644  0.24785004     0.08200
C135        C  0.64463700  0.11904161  0.18340961    -0.55300
C136        C  0.59405959  0.11911310  0.16421230     0.08800
H137        H  0.66481222  0.22223444  0.25873396     0.13300
H138        H  0.52754559  0.13926501  0.18532542    -0.01000
H139        H  0.65983976  0.07841817  0.29943843     0.13600
H140        H  0.66706275  0.10255291  0.16248998     0.13400
C141        C  0.88316433  0.13738165  0.33262688     0.85200
C142        C  0.90601363  0.19001257  0.33159285    -0.55100
C143        C  0.95675150  0.19084896  0.34955315     0.08100
C144        C  0.98002189  0.13876042  0.36988647     0.19100
C145        C  0.90914848  0.10191779  0.30471785    -0.55800
C146        C  0.95995190  0.10289052  0.32410816     0.08200
C147        C  0.90397676  0.11950581  0.38819295    -0.55300
C148        C  0.95453571  0.11958541  0.40752839     0.08800
H149        H  0.88385494  0.22223048  0.31207761     0.13300
H150        H  0.02111995  0.13940267  0.38671936    -0.01000
H151        H  0.88907189  0.07840914  0.27240622     0.13600
H152        H  0.88148988  0.10314218  0.40909844     0.13400
C153        C  0.75346104  0.13979704  0.23264618    -0.14700
C154        C  0.72197863  0.13797749  0.26251861     0.07500
C155        C  0.74373922  0.14090386  0.31580228    -0.14700
C156        C  0.79527943  0.14058408  0.33869119    -0.14700
C157        C  0.82676894  0.13810737  0.30886067     0.07500
C158        C  0.80500394  0.14027220  0.25553092    -0.14700
H159        H  0.73880732  0.14210830  0.19158849     0.11500
H160        H  0.72074454  0.14328671  0.33998696     0.11500
H161        H  0.80993790  0.14349393  0.37970938     0.11500
H162        H  0.82797929  0.14218489  0.23130215     0.11500
C163        C  0.53813827  0.49230032  0.30258741    -0.14700
C164        C  0.49246358  0.01184571  0.30326799     0.07500
C165        C  0.47900006  0.06176524  0.28615676    -0.14700
C166        C  0.51062759  0.09148996  0.26863667    -0.14700
C167        C  0.55630904  0.07194790  0.26797069     0.07500
C168        C  0.56976440  0.02202345  0.28506772    -0.14700
H169        H  0.54936454  0.45386012  0.31506189     0.11500
H170        H  0.44445218  0.07816937  0.28717317     0.11500
H171        H  0.49940507  0.12993272  0.25616505     0.11500
H172        H  0.60431225  0.00561859  0.28405419     0.11500
C173        C  0.00933357  0.49352381  0.26570046    -0.14700
C174        C  0.05610267  0.01198909  0.26741813     0.07500
C175        C  0.07081605  0.06069746  0.28751098    -0.14700
C176        C  0.03944761  0.09020787  0.30561979    -0.14700
C177        C  0.99268564  0.07173776  0.30391704     0.07500
C178        C  0.97796414  0.02303620  0.28380820    -0.14700
H179        H  0.99703919  0.45596760  0.25108934     0.11500
H180        H  0.10618647  0.07646189  0.28842158     0.11500
H181        H  0.05174445  0.12776170  0.32023370     0.11500
H182        H  0.94259364  0.00727303  0.28289898     0.11500
C183        C  0.24385032  0.44360770  0.31590552    -0.14700
C184        C  0.22207279  0.44564508  0.26257289     0.07500
C185        C  0.25354909  0.44303689  0.23273573    -0.14700
C186        C  0.30509102  0.44272552  0.25560978    -0.14700
C187        C  0.32686645  0.44577594  0.30888397     0.07500
C188        C  0.29539470  0.44408736  0.33877432    -0.14700
H189        H  0.22088665  0.44178229  0.34015002     0.11500
H190        H  0.23887344  0.44002666  0.19172517     0.11500
H191        H  0.32807788  0.44025681  0.23142220     0.11500
H192        H  0.31005175  0.44187419  0.37983627     0.11500
C193        C  0.30504061  0.39016970  0.00531046    -0.14700
C194        C  0.32687944  0.38807079  0.05862988     0.07500
C195        C  0.29545789  0.39071532  0.08853034    -0.14700
C196        C  0.24390301  0.39109268  0.06573184    -0.13100
C197        C  0.22204969  0.38811772  0.01246263     0.07500
C198        C  0.25347814  0.38982757  0.48251479    -0.14700
H199        H  0.32797281  0.39193320  0.48102788     0.11500
H200        H  0.31018886  0.39369922  0.12953995     0.11500
H201        H  0.22097550  0.39357081  0.08997758     0.11500
H202        H  0.23876649  0.39211785  0.44145941     0.11500
C203        C  0.97835578  0.31104393  0.03480347    -0.14700
C204        C  0.99255205  0.26167841  0.05335964     0.07500
C205        C  0.03895461  0.24284627  0.05414006    -0.14700
C206        C  0.07052832  0.27269357  0.03665390    -0.14700
C207        C  0.05632986  0.32205677  0.01809271     0.07500
C208        C  0.00992880  0.34089037  0.01731544    -0.14700
H209        H  0.94326964  0.32700971  0.03469674     0.11500
H210        H  0.05079906  0.20481276  0.06765434     0.11500
H211        H  0.10561417  0.25672788  0.03675993     0.11500
H212        H  0.99808268  0.37892164  0.50379673     0.11500
C213        C  0.56762154  0.27049454  0.06965208    -0.14700
C214        C  0.55611100  0.26253012  0.01710759     0.07500
C215        C  0.51266518  0.28417367  0.48328734    -0.14700
C216        C  0.48120962  0.31329319  0.00169371    -0.14700
C217        C  0.49272433  0.32126384  0.05423724     0.07500
C218        C  0.53616661  0.29961510  0.08805870    -0.14700
H219        H  0.60044148  0.25345515  0.09653694     0.11500
H220        H  0.50339894  0.27938134  0.44251553     0.11500
H221        H  0.44839069  0.33033405  0.47480989     0.11500
H222        H  0.54543391  0.30441183  0.12883059     0.11500
C223        C  0.74381248  0.19369757  0.06606722    -0.14700
C224        C  0.72198725  0.19577242  0.01274528     0.07500
C225        C  0.75341651  0.19305801  0.48285713    -0.14700
C226        C  0.80497089  0.19263672  0.00566916    -0.14700
C227        C  0.82681495  0.19563199  0.05893900     0.07500
C228        C  0.79537332  0.19399657  0.08887530    -0.14700
H229        H  0.72087340  0.19197607  0.09034360     0.11500
H230        H  0.73868672  0.19005671  0.44184754     0.11500
H231        H  0.82790727  0.19011431  0.48143430     0.11500
H232        H  0.81006829  0.19172556  0.12993171     0.11500
C233        C  0.66558457  0.19654069  0.98901827     0.85200
C234        C  0.64481027  0.21457634  0.93345700    -0.55100
C235        C  0.59424358  0.21447777  0.91400531     0.08100
C236        C  0.56871895  0.19529847  0.95156344     0.19100
C237        C  0.63956281  0.23182945  0.51706306    -0.55800
C238        C  0.58881118  0.23106337  0.99735435     0.08200
C239        C  0.64270265  0.14392035  0.98985151    -0.55300
C240        C  0.59196008  0.14318563  0.97188671     0.08800
H241        H  0.66735440  0.23096572  0.91262627     0.13300
H242        H  0.52756650  0.19432668  0.93527543    -0.01000
H243        H  0.65949824  0.25612538  0.54878872     0.13600
H244        H  0.66481789  0.11165874  0.50932211     0.13400
C245        C  0.88324803  0.19636793  0.58256067     0.85200
C246        C  0.90417925  0.21475683  0.63792425    -0.55100
C247        C  0.95474785  0.21464698  0.65716423     0.08100
C248        C  0.98013776  0.19494656  0.61960821     0.19100
C249        C  0.90908598  0.23141984  0.55415895    -0.55800
C250        C  0.95989473  0.23042004  0.57347598     0.08200
C251        C  0.90617471  0.14361103  0.58206022    -0.55300
C252        C  0.95692325  0.14273429  0.59988952     0.08800
H253        H  0.88174984  0.23134116  0.65878890     0.13300
H254        H  0.02126223  0.19435907  0.63625446    -0.01000
H255        H  0.88894591  0.25483615  0.52172281     0.13600
H256        H  0.88404311  0.11130382  0.56289586     0.13400
O257        O  0.52519624  0.47949499  0.98126345    -0.75700
O258        O  0.58915053  0.05268700  0.60472109    -0.75800
O259        O  0.52740928  0.47018663  0.57900014    -0.75800
O260        O  0.58669857  0.06161135  0.50777704    -0.75900
O261        O  0.52147453  0.11365147  0.49232131    -0.75800
O262        O  0.46218099  0.02222253  0.56353364    -0.75800
O263        O  0.52368654  0.10433849  0.59005624    -0.75800
O264        O  0.45973738  0.03115475  0.96659364    -0.75800
Ni265      Ni  0.55943132  0.01413106  0.54382112     1.25400
Ni266      Ni  0.48945268  0.06970585  0.52749597     1.25400
C267        C  0.48132231  0.99289958  0.95408798     0.86400
C268        C  0.56756259  0.09093793  0.61723011     0.86400
C269        C  0.48415319  0.48026028  0.58127810     0.86400
C270        C  0.56472643  0.10357425  0.49003530     0.86600
O271        O  0.08674774  0.02258106  0.50750825    -0.75700
O272        O  0.02737421  0.11288814  0.57962799    -0.75800
O273        O  0.08939383  0.03062065  0.60451279    -0.75800
O274        O  0.02486647  0.10467253  0.98169393    -0.75900
O275        O  0.95946759  0.05307708  0.96690607    -0.75800
O276        O  0.02399602  0.47902296  0.58971803    -0.75800
O277        O  0.96211610  0.06111990  0.56391104    -0.75800
O278        O  0.02148767  0.47081512  0.49178500    -0.75800
Ni279      Ni  0.05939403  0.06958002  0.54395809     1.25400
Ni280      Ni  0.98946892  0.01411940  0.52745889     1.25400
C281        C  0.06475759  0.48075186  0.48960349     0.86400
C282        C  0.98410338  0.10295317  0.58180790     0.86400
C283        C  0.06786748  0.99231292  0.61689458     0.86400
C284        C  0.98099433  0.09138052  0.95451834     0.86600
C285        C  0.38328448  0.38730759  0.58233976     0.85200
C286        C  0.40617155  0.43992055  0.58147337    -0.55100
C287        C  0.45691531  0.44064837  0.59942402     0.08100
C288        C  0.48015283  0.38853689  0.61976130     0.19100
C289        C  0.40928662  0.35199569  0.55429558    -0.55800
C290        C  0.46003961  0.35275414  0.57398826     0.08200
C291        C  0.40407570  0.36929520  0.63790796    -0.55300
C292        C  0.45464196  0.36938240  0.65734026     0.08800
H293        H  0.38405641  0.47218156  0.56200058     0.13300
H294        H  0.52130662  0.38950146  0.63603451    -0.01000
H295        H  0.38933718  0.32769214  0.52258117     0.13600
H296        H  0.38154573  0.35291166  0.65875638     0.13400
C297        C  0.16561753  0.38735825  0.98885149     0.85200
C298        C  0.14268208  0.44011336  0.98932802    -0.55100
C299        C  0.09193374  0.44097900  0.97150767     0.08100
C300        C  0.06872801  0.38875795  0.95181099     0.19100
C301        C  0.13978909  0.35231703  0.51727298    -0.55800
C302        C  0.08897968  0.35330680  0.99795919     0.08200
C303        C  0.14468857  0.36894205  0.93349846    -0.55300
C304        C  0.09411955  0.36904255  0.91426082     0.08800
H305        H  0.16481015  0.47242873  0.50847994     0.13300
H306        H  0.02760291  0.38933613  0.93516731    -0.01000
H307        H  0.15993339  0.32891277  0.54971665     0.13600
H308        H  0.16712421  0.35235857  0.91263965     0.13400
C309        C  0.16567804  0.44634693  0.73880745     0.85200
C310        C  0.14487874  0.46420082  0.68323465    -0.55100
C311        C  0.09432116  0.46410197  0.66388083     0.08100
C312        C  0.06882364  0.44492645  0.70151238     0.19100
C313        C  0.13966444  0.48181275  0.76668664    -0.55800
C314        C  0.08886168  0.48082008  0.74727476     0.08200
C315        C  0.14284774  0.39370940  0.73985449    -0.55300
C316        C  0.09211091  0.39285106  0.72187449     0.08800
H317        H  0.16737601  0.48057050  0.66234282     0.13300
H318        H  0.02772729  0.44426463  0.68466404    -0.01000
H319        H  0.15971956  0.00534808  0.79898516     0.13600
H320        H  0.16501440  0.36150539  0.75939043     0.13400
C321        C  0.38327428  0.44655905  0.83252848     0.85200
C322        C  0.40423900  0.46476328  0.88795227    -0.55100
C323        C  0.45481642  0.46471714  0.90711461     0.08100
C324        C  0.48016436  0.44513474  0.86946563     0.19100
C325        C  0.40905623  0.48177483  0.80420964    -0.55800
C326        C  0.45984636  0.48069028  0.82344191     0.08200
C327        C  0.40620270  0.39383385  0.83185844    -0.55300
C328        C  0.45694286  0.39295513  0.84966417     0.08800
H329        H  0.38183380  0.48124974  0.90889423     0.13300
H330        H  0.52130890  0.44459135  0.88595590    -0.01000
H331        H  0.38893056  0.00533550  0.77187790     0.13600
H332        H  0.38406663  0.36153871  0.81267079     0.13400
O333        O  0.52396179  0.22923554  0.83979040    -0.75700
O334        O  0.45951163  0.30303723  0.71682341    -0.75800
O335        O  0.52148300  0.22081305  0.74185990    -0.75800
O336        O  0.46211067  0.31130177  0.81379387    -0.75900
O337        O  0.52739413  0.36301884  0.82947053    -0.75800
O338        O  0.58676886  0.27252749  0.75753249    -0.75800
O339        O  0.52492619  0.35460399  0.73154239    -0.75800
O340        O  0.58937532  0.28080286  0.85450483    -0.75800
Ni341      Ni  0.48946857  0.26420563  0.77744968     1.25400
Ni342      Ni  0.55941454  0.31962951  0.79387893     1.25400
C343        C  0.56782300  0.24256508  0.86695852     0.86400
C344        C  0.48106437  0.34127939  0.70437552     0.86400
C345        C  0.56476092  0.23069373  0.73968490     0.86400
C346        C  0.48411613  0.35313402  0.83164598     0.86600
O347        O  0.02161884  0.36320082  0.74215283    -0.75700
O348        O  0.96198316  0.27242706  0.81356014    -0.75800
O349        O  0.02377518  0.35436993  0.83999258    -0.75800
O350        O  0.95967160  0.28104273  0.71665616    -0.75900
O351        O  0.02509221  0.22931780  0.73143347    -0.75800
O352        O  0.08919839  0.30264902  0.85476717    -0.75800
O353        O  0.02724835  0.22049251  0.82927470    -0.75800
O354        O  0.08688354  0.31126563  0.75786139    -0.75800
Ni355      Ni  0.98946126  0.31964855  0.77746674     1.25400
Ni356      Ni  0.05940697  0.26404237  0.79395763     1.25400
C357        C  0.06490884  0.35318255  0.74000351     0.86400
C358        C  0.98395746  0.23051177  0.83142186     0.86400
C359        C  0.06762465  0.34092221  0.86723468     0.86400
C360        C  0.98124359  0.24276690  0.70419051     0.86600
C361        C  0.66557385  0.13722130  0.73884389     0.85200
C362        C  0.64266796  0.18995489  0.73951913    -0.55100
C363        C  0.59192997  0.19086214  0.72167713     0.08100
C364        C  0.56868818  0.13869759  0.70184121     0.19100
C365        C  0.63974644  0.10200629  0.76711773    -0.55800
C366        C  0.58895860  0.10311635  0.74785029     0.08200
C367        C  0.64463691  0.11904146  0.68340970    -0.55300
C368        C  0.59405953  0.11911310  0.66421236     0.08800
H369        H  0.66481225  0.22223384  0.75873438     0.13300
H370        H  0.52754589  0.13926494  0.68532594    -0.01000
H371        H  0.65984010  0.07841849  0.79943950     0.13600
H372        H  0.66706239  0.10255337  0.66248963     0.13400
C373        C  0.88316427  0.13738112  0.83262648     0.85200
C374        C  0.90601393  0.19001209  0.83159297    -0.55100
C375        C  0.95675186  0.19084848  0.84955323     0.08100
C376        C  0.98002187  0.13875995  0.86988628     0.19100
C377        C  0.90914805  0.10191726  0.80471718    -0.55800
C378        C  0.95995141  0.10289005  0.82410755     0.08200
C379        C  0.90397687  0.11950568  0.88819268    -0.55300
C380        C  0.95453580  0.11958537  0.90752833     0.08800
H381        H  0.88385572  0.22222934  0.81207778     0.13300
H382        H  0.02111986  0.13940191  0.88671892    -0.01000
H383        H  0.88907083  0.07840794  0.77240476     0.13600
H384        H  0.88149011  0.10314246  0.90909788     0.13400
C385        C  0.75346069  0.13979712  0.73264631    -0.14700
C386        C  0.72197846  0.13797770  0.76251882     0.07500
C387        C  0.74373907  0.14090380  0.81580257    -0.14700
C388        C  0.79527915  0.14058410  0.83869141    -0.14700
C389        C  0.82676865  0.13810734  0.80886090     0.07500
C390        C  0.80500361  0.14027237  0.75553113    -0.14700
H391        H  0.73880683  0.14210853  0.69158846     0.11500
H392        H  0.72074445  0.14328718  0.83998757     0.11500
H393        H  0.80993756  0.14349362  0.87970967     0.11500
H394        H  0.82797889  0.14218529  0.73130288     0.11500
C395        C  0.53813836  0.49230045  0.80258741    -0.14700
C396        C  0.49246336  0.01184628  0.80326788     0.07500
C397        C  0.47899998  0.06176583  0.78615683    -0.14700
C398        C  0.51062757  0.09149042  0.76863673    -0.14700
C399        C  0.55630914  0.07194814  0.76797071     0.07500
C400        C  0.56976435  0.02202375  0.78506758    -0.14700
H401        H  0.54936418  0.45386041  0.81506113     0.11500
H402        H  0.44445199  0.07817000  0.78717345     0.11500
H403        H  0.49940509  0.12993373  0.75616501     0.11500
H404        H  0.60431297  0.00561849  0.78405445     0.11500
C405        C  0.00933416  0.49352436  0.76570061    -0.14700
C406        C  0.05610274  0.01198920  0.76741824     0.07500
C407        C  0.07081611  0.06069773  0.78751101    -0.14700
C408        C  0.03944762  0.09020814  0.80561990    -0.14700
C409        C  0.99268560  0.07173781  0.80391695     0.07500
C410        C  0.97796426  0.02303614  0.78380817    -0.14700
H411        H  0.99703965  0.45596783  0.75108991     0.11500
H412        H  0.10618627  0.07646199  0.78842091     0.11500
H413        H  0.05174460  0.12776249  0.82023422     0.11500
H414        H  0.94259349  0.00727273  0.78289854     0.11500
C415        C  0.24385034  0.44360763  0.81590509    -0.14700
C416        C  0.22207280  0.44564500  0.76257238     0.07500
C417        C  0.25354904  0.44303677  0.73273506    -0.14700
C418        C  0.30509091  0.44272542  0.75560928    -0.14700
C419        C  0.32686632  0.44577612  0.80888343     0.07500
C420        C  0.29539470  0.44408736  0.83877372    -0.14700
H421        H  0.22088707  0.44178317  0.84014993     0.11500
H422        H  0.23887342  0.44002656  0.69172382     0.11500
H423        H  0.32807804  0.44025709  0.73142211     0.11500
H424        H  0.31005182  0.44187363  0.87983509     0.11500
C425        C  0.30504085  0.39016962  0.50531044    -0.14700
C426        C  0.32687952  0.38807074  0.55862998     0.07500
C427        C  0.29545782  0.39071535  0.58853080    -0.14700
C428        C  0.24390297  0.39109275  0.56573232    -0.13100
C429        C  0.22204991  0.38811764  0.51246296     0.07500
C430        C  0.25347770  0.38982757  0.98251458    -0.14700
H431        H  0.32797202  0.39193385  0.98102843     0.11500
H432        H  0.31018929  0.39369909  0.62954108     0.11500
H433        H  0.22097462  0.39357162  0.58997784     0.11500
H434        H  0.23876633  0.39211792  0.94145936     0.11500
C435        C  0.97835582  0.31104380  0.53480344    -0.14700
C436        C  0.99255196  0.26167847  0.55335963     0.07500
C437        C  0.03895441  0.24284641  0.55413997    -0.14700
C438        C  0.07052812  0.27269382  0.53665381    -0.14700
C439        C  0.05632992  0.32205689  0.51809263     0.07500
C440        C  0.00992887  0.34089032  0.51731547    -0.14700
H441        H  0.94326964  0.32700945  0.53469643     0.11500
H442        H  0.05079913  0.20481353  0.56765491     0.11500
H443        H  0.10561370  0.25672770  0.53675916     0.11500
H444        H  0.99808247  0.37892154  0.00379604     0.11500
C445        C  0.56762177  0.27049437  0.56965218    -0.14700
C446        C  0.55611103  0.26253012  0.51710782     0.07500
C447        C  0.51266510  0.28417366  0.98328684    -0.14700
C448        C  0.48120977  0.31329334  0.50169417    -0.14700
C449        C  0.49272452  0.32126381  0.55423753     0.07500
C450        C  0.53616688  0.29961504  0.58805883    -0.14700
H451        H  0.60044153  0.25345518  0.59653676     0.11500
H452        H  0.50339878  0.27938091  0.94251439     0.11500
H453        H  0.44838998  0.33033378  0.97480948     0.11500
H454        H  0.54543446  0.30441140  0.62883066     0.11500
C455        C  0.74381258  0.19369760  0.56606698    -0.14700
C456        C  0.72198728  0.19577257  0.51274513     0.07500
C457        C  0.75341643  0.19305785  0.98285730    -0.14700
C458        C  0.80497094  0.19263679  0.50566882    -0.14700
C459        C  0.82681509  0.19563186  0.55893869     0.07500
C460        C  0.79537346  0.19399656  0.58887516    -0.14700
H461        H  0.72087341  0.19197657  0.59034330     0.11500
H462        H  0.73868696  0.19005645  0.94184768     0.11500
H463        H  0.82790704  0.19011375  0.98143530     0.11500
H464        H  0.81006842  0.19172465  0.62993146     0.11500
C465        C  0.66558455  0.69654089  0.48901811     0.85200
C466        C  0.64481024  0.71457650  0.43345686    -0.55100
C467        C  0.59424356  0.71447780  0.41400522     0.08100
C468        C  0.56871874  0.69529844  0.45156324     0.19100
C469        C  0.63956304  0.73182947  0.01706339    -0.55800
C470        C  0.58881099  0.73106327  0.49735416     0.08200
C471        C  0.64270245  0.64392050  0.48985130    -0.55300
C472        C  0.59195984  0.64318573  0.47188664     0.08800
H473        H  0.66735438  0.73096585  0.41262576     0.13300
H474        H  0.52756623  0.69432670  0.43527483    -0.01000
H475        H  0.65949851  0.75612606  0.04878886     0.13600
H476        H  0.66481806  0.61165799  0.00932197     0.13400
C477        C  0.88324796  0.69636730  0.08256069     0.85200
C478        C  0.90417932  0.71475641  0.13792426    -0.55100
C479        C  0.95474797  0.71464663  0.15716430     0.08100
C480        C  0.98013758  0.69494632  0.11960811     0.19100
C481        C  0.90908601  0.73141948  0.05415919    -0.55800
C482        C  0.95989476  0.73041975  0.07347609     0.08200
C483        C  0.90617445  0.64361051  0.08205985    -0.55300
C484        C  0.95692294  0.64273391  0.09988926     0.08800
H485        H  0.88174999  0.73134000  0.15878891     0.13300
H486        H  0.02126202  0.69435929  0.13625396    -0.01000
H487        H  0.88894616  0.75483599  0.02172386     0.13600
H488        H  0.88404239  0.61130267  0.06289537     0.13400
O489        O  0.52519631  0.97949508  0.48126326    -0.75700
O490        O  0.58915042  0.55268688  0.10472114    -0.75800
O491        O  0.52740925  0.97018671  0.07900021    -0.75800
O492        O  0.58669847  0.56161131  0.00777713    -0.75900
O493        O  0.52147431  0.61365143  0.99232111    -0.75800
O494        O  0.46218104  0.52222247  0.06353357    -0.75800
O495        O  0.52368660  0.60433856  0.09005621    -0.75800
O496        O  0.45973747  0.53115468  0.46659377    -0.75800
Ni497      Ni  0.55943126  0.51413099  0.04382114     1.25400
Ni498      Ni  0.48945266  0.56970584  0.02749592     1.25400
C499        C  0.48132232  0.49289967  0.45408778     0.86400
C500        C  0.56756257  0.59093790  0.11723016     0.86400
C501        C  0.48415324  0.98026029  0.08127829     0.86400
C502        C  0.56472638  0.60357430  0.99003545     0.86600
O503        O  0.08674777  0.52258108  0.00750843    -0.75700
O504        O  0.02737420  0.61288805  0.07962815    -0.75800
O505        O  0.08939379  0.53062062  0.10451287    -0.75800
O506        O  0.02486644  0.60467255  0.48169395    -0.75900
O507        O  0.95946742  0.55307721  0.46690601    -0.75800
O508        O  0.02399618  0.97902285  0.08971818    -0.75800
O509        O  0.96211611  0.56111993  0.06391120    -0.75800
O510        O  0.02148785  0.97081506  0.99178514    -0.75800
Ni511      Ni  0.05939400  0.56958001  0.04395815     1.25400
Ni512      Ni  0.98946889  0.51411944  0.02745899     1.25400
C513        C  0.06475760  0.98075196  0.98960343     0.86400
C514        C  0.98410325  0.60295326  0.08180773     0.86400
C515        C  0.06786746  0.49231293  0.11689477     0.86400
C516        C  0.98099436  0.59138038  0.45451819     0.86600
C517        C  0.38328454  0.88730787  0.08233980     0.85200
C518        C  0.40617154  0.93992067  0.08147340    -0.55100
C519        C  0.45691532  0.94064830  0.09942400     0.08100
C520        C  0.48015292  0.88853683  0.11976142     0.19100
C521        C  0.40928674  0.85199599  0.05429570    -0.55800
C522        C  0.46003976  0.85275434  0.07398839     0.08200
C523        C  0.40407572  0.86929525  0.13790784    -0.55300
C524        C  0.45464202  0.86938237  0.15734027     0.08800
H525        H  0.38405634  0.97218176  0.06200071     0.13300
H526        H  0.52130668  0.88950141  0.13603454    -0.01000
H527        H  0.38933762  0.82769238  0.02258210     0.13600
H528        H  0.38154565  0.85291240  0.15875633     0.13400
C529        C  0.16561796  0.88735814  0.48885192     0.85200
C530        C  0.14268243  0.94011330  0.48932841    -0.55100
C531        C  0.09193424  0.94097896  0.47150799     0.08100
C532        C  0.06872855  0.88875783  0.45181139     0.19100
C533        C  0.13978896  0.85231692  0.01727295    -0.55800
C534        C  0.08898034  0.85330678  0.49795976     0.08200
C535        C  0.14468882  0.86894199  0.43349870    -0.55300
C536        C  0.09411991  0.86904267  0.41426099     0.08800
H537        H  0.16480981  0.97242780  0.00847907     0.13300
H538        H  0.02760398  0.88933553  0.43516827    -0.01000
H539        H  0.15993326  0.82891284  0.04971654     0.13600
H540        H  0.16712458  0.85235891  0.41263969     0.13400
C541        C  0.16567807  0.94634690  0.23880711     0.85200
C542        C  0.14487900  0.96420099  0.18323435    -0.55100
C543        C  0.09432146  0.96410179  0.16388068     0.08100
C544        C  0.06882373  0.94492629  0.20151228     0.19100
C545        C  0.13966414  0.98181266  0.26668625    -0.55800
C546        C  0.08886140  0.98081998  0.24727433     0.08200
C547        C  0.14284791  0.89370931  0.23985445    -0.55300
C548        C  0.09211111  0.89285101  0.22187457     0.08800
H549        H  0.16737649  0.98057060  0.16234171     0.13300
H550        H  0.02772720  0.94426420  0.18466352    -0.01000
H551        H  0.15971916  0.50534747  0.29898435     0.13600
H552        H  0.16501463  0.86150565  0.25939126     0.13400
C553        C  0.38327447  0.94655908  0.33252847     0.85200
C554        C  0.40423925  0.96476322  0.38795212    -0.55100
C555        C  0.45481664  0.96471694  0.40711460     0.08100
C556        C  0.48016443  0.94513460  0.36946562     0.19100
C557        C  0.40905625  0.98177484  0.30420952    -0.55800
C558        C  0.45984637  0.98069016  0.32344195     0.08200
C559        C  0.40620270  0.89383393  0.33185846    -0.55300
C560        C  0.45694286  0.89295511  0.34966403     0.08800
H561        H  0.38183419  0.98124905  0.40889386     0.13300
H562        H  0.52130886  0.94459128  0.38595558    -0.01000
H563        H  0.38893020  0.50533523  0.27187863     0.13600
H564        H  0.38406654  0.86153925  0.31267030     0.13400
O565        O  0.52396171  0.72923561  0.33979033    -0.75700
O566        O  0.45951159  0.80303728  0.21682324    -0.75800
O567        O  0.52148299  0.72081315  0.24185972    -0.75800
O568        O  0.46211056  0.81130177  0.31379381    -0.75900
O569        O  0.52739405  0.86301877  0.32947040    -0.75800
O570        O  0.58676869  0.77252764  0.25753233    -0.75800
O571        O  0.52492628  0.85460400  0.23154243    -0.75800
O572        O  0.58937526  0.78080288  0.35450477    -0.75800
Ni573      Ni  0.48946851  0.76420572  0.27744956     1.25400
Ni574      Ni  0.55941451  0.81962955  0.29387890     1.25400
C575        C  0.56782293  0.74256511  0.36695846     0.86400
C576        C  0.48106440  0.84127947  0.20437552     0.86400
C577        C  0.56476096  0.73069375  0.23968500     0.86400
C578        C  0.48411604  0.85313401  0.33164582     0.86600
O579        O  0.02161917  0.86320077  0.24215276    -0.75700
O580        O  0.96198323  0.77242704  0.31356002    -0.75800
O581        O  0.02377525  0.85436995  0.33999254    -0.75800
O582        O  0.95967191  0.78104275  0.21665610    -0.75900
O583        O  0.02509248  0.72931797  0.23143353    -0.75800
O584        O  0.08919832  0.80264900  0.35476731    -0.75800
O585        O  0.02724840  0.72049243  0.32927465    -0.75800
O586        O  0.08688383  0.81126571  0.25786171    -0.75800
Ni587      Ni  0.98946142  0.81964855  0.27746668     1.25400
Ni588      Ni  0.05940701  0.76404241  0.29395771     1.25400
C589        C  0.06490920  0.85318254  0.24000364     0.86400
C590        C  0.98395754  0.73051176  0.33142182     0.86400
C591        C  0.06762463  0.84092222  0.36723481     0.86400
C592        C  0.98124388  0.74276696  0.20419047     0.86600
C593        C  0.66557373  0.63722156  0.23884383     0.85200
C594        C  0.64266790  0.68995504  0.23951928    -0.55100
C595        C  0.59192991  0.69086222  0.22167725     0.08100
C596        C  0.56868790  0.63869773  0.20184104     0.19100
C597        C  0.63974608  0.60200658  0.26711750    -0.55800
C598        C  0.58895817  0.60311650  0.24784996     0.08200
C599        C  0.64463676  0.61904167  0.18340973    -0.55300
C600        C  0.59405933  0.61911320  0.16421236     0.08800
H601        H  0.66481212  0.72223439  0.25873400     0.13300
H602        H  0.52754546  0.63926499  0.18532543    -0.01000
H603        H  0.65983934  0.57841829  0.29943842     0.13600
H604        H  0.66706217  0.60255337  0.16249004     0.13400
C605        C  0.88316434  0.63738107  0.33262708     0.85200
C606        C  0.90601407  0.69001201  0.33159330    -0.55100
C607        C  0.95675211  0.69084842  0.34955334     0.08100
C608        C  0.98002212  0.63876000  0.36988660     0.19100
C609        C  0.90914834  0.60191754  0.30471771    -0.55800
C610        C  0.95995181  0.60289029  0.32410802     0.08200
C611        C  0.90397662  0.61950542  0.38819314    -0.55300
C612        C  0.95453563  0.61958514  0.40752851     0.08800
H613        H  0.88385589  0.72222923  0.31207810     0.13300
H614        H  0.02112063  0.63940178  0.38671958    -0.01000
H615        H  0.88907142  0.57840838  0.27240597     0.13600
H616        H  0.88148946  0.60314131  0.40909881     0.13400
C617        C  0.75346082  0.63979708  0.23264616    -0.14700
C618        C  0.72197856  0.63797769  0.26251871     0.07500
C619        C  0.74373918  0.64090382  0.31580235    -0.14700
C620        C  0.79527926  0.64058418  0.33869119    -0.14700
C621        C  0.82676879  0.63810724  0.30886065     0.07500
C622        C  0.80500377  0.64027236  0.25553079    -0.14700
H623        H  0.73880674  0.64210861  0.19158848     0.11500
H624        H  0.72074453  0.64328722  0.33998713     0.11500
H625        H  0.80993763  0.64349390  0.37970943     0.11500
H626        H  0.82797905  0.64218438  0.23130198     0.11500
C627        C  0.53813827  0.99230028  0.30258744    -0.14700
C628        C  0.49246350  0.51184588  0.30326799     0.07500
C629        C  0.47900001  0.56176523  0.28615687    -0.14700
C630        C  0.51062745  0.59149000  0.26863679    -0.14700
C631        C  0.55630907  0.57194783  0.26797063     0.07500
C632        C  0.56976448  0.52202343  0.28506767    -0.14700
H633        H  0.54936507  0.95385954  0.31506169     0.11500
H634        H  0.44445239  0.57816938  0.28717395     0.11500
H635        H  0.49940446  0.62993268  0.25616495     0.11500
H636        H  0.60431296  0.50561813  0.28405408     0.11500
C637        C  0.00933399  0.99352411  0.26570055    -0.14700
C638        C  0.05610250  0.51198898  0.26741810     0.07500
C639        C  0.07081601  0.56069730  0.28751103    -0.14700
C640        C  0.03944743  0.59020763  0.30561980    -0.14700
C641        C  0.99268524  0.57173736  0.30391696     0.07500
C642        C  0.97796364  0.52303578  0.28380811    -0.14700
H643        H  0.99703934  0.95596772  0.25108952     0.11500
H644        H  0.10618630  0.57646177  0.28842123     0.11500
H645        H  0.05174425  0.62776149  0.32023383     0.11500
H646        H  0.94259247  0.50727210  0.28289887     0.11500
C647        C  0.24385041  0.94360772  0.31590556    -0.14700
C648        C  0.22207287  0.94564511  0.26257286     0.07500
C649        C  0.25354926  0.94303688  0.23273573    -0.14700
C650        C  0.30509114  0.94272552  0.25560984    -0.14700
C651        C  0.32686658  0.94577615  0.30888398     0.07500
C652        C  0.29539489  0.94408736  0.33877434    -0.14700
H653        H  0.22088674  0.94178327  0.34015010     0.11500
H654        H  0.23887395  0.94002658  0.19172516     0.11500
H655        H  0.32807795  0.94025719  0.23142225     0.11500
H656        H  0.31005220  0.94187352  0.37983631     0.11500
C657        C  0.30504079  0.89016963  0.00531028    -0.14700
C658        C  0.32687949  0.88807070  0.05862970     0.07500
C659        C  0.29545788  0.89071528  0.08853026    -0.14700
C660        C  0.24390301  0.89109271  0.06573183    -0.13100
C661        C  0.22204985  0.88811753  0.01246259     0.07500
C662        C  0.25347792  0.88982761  0.48251473    -0.14700
H663        H  0.32797226  0.89193414  0.48102827     0.11500
H664        H  0.31018888  0.89369894  0.12953989     0.11500
H665        H  0.22097548  0.89357153  0.08997744     0.11500
H666        H  0.23876641  0.89211819  0.44145935     0.11500
C667        C  0.97835591  0.81104385  0.03480351    -0.14700
C668        C  0.99255202  0.76167831  0.05335965     0.07500
C669        C  0.03895449  0.74284626  0.05414005    -0.14700
C670        C  0.07052811  0.77269361  0.03665385    -0.14700
C671        C  0.05632982  0.82205684  0.01809263     0.07500
C672        C  0.00992879  0.84089044  0.01731538    -0.14700
H673        H  0.94326982  0.82700951  0.03469688     0.11500
H674        H  0.05079891  0.70481262  0.06765421     0.11500
H675        H  0.10561403  0.75672776  0.03675992     0.11500
H676        H  0.99808255  0.87892170  0.50379654     0.11500
C677        C  0.56762161  0.77049444  0.06965195    -0.14700
C678        C  0.55611104  0.76253012  0.01710752     0.07500
C679        C  0.51266526  0.78417366  0.48328740    -0.14700
C680        C  0.48120984  0.81329323  0.00169396    -0.14700
C681        C  0.49272449  0.82126387  0.05423742     0.07500
C682        C  0.53616672  0.79961509  0.08805869    -0.14700
H683        H  0.60044151  0.75345518  0.09653663     0.11500
H684        H  0.50339890  0.77938105  0.44251550     0.11500
H685        H  0.44839041  0.83033396  0.47480978     0.11500
H686        H  0.54543417  0.80441152  0.12883044     0.11500
C687        C  0.74381252  0.69369751  0.06606719    -0.14700
C688        C  0.72198727  0.69577239  0.01274528     0.07500
C689        C  0.75341655  0.69305783  0.48285719    -0.14700
C690        C  0.80497071  0.69263672  0.00566913    -0.14700
C691        C  0.82681492  0.69563187  0.05893900     0.07500
C692        C  0.79537333  0.69399646  0.08887531    -0.14700
H693        H  0.72087329  0.69197576  0.09034340     0.11500
H694        H  0.73868670  0.69005639  0.44184761     0.11500
H695        H  0.82790724  0.69011420  0.48143426     0.11500
H696        H  0.81006826  0.69172534  0.12993174     0.11500
C697        C  0.66558458  0.69654064  0.98901828     0.85200
C698        C  0.64481018  0.71457634  0.93345690    -0.55100
C699        C  0.59424349  0.71447776  0.91400532     0.08100
C700        C  0.56871887  0.69529824  0.95156341     0.19100
C701        C  0.63956292  0.73182949  0.51706318    -0.55800
C702        C  0.58881105  0.73106325  0.99735427     0.08200
C703        C  0.64270265  0.64392013  0.98985148    -0.55300
C704        C  0.59196008  0.64318541  0.97188663     0.08800
H705        H  0.66735414  0.73096654  0.91262625     0.13300
H706        H  0.52756630  0.69432605  0.93527535    -0.01000
H707        H  0.65949819  0.75612588  0.54878887     0.13600
H708        H  0.66481785  0.61165885  0.50932208     0.13400
C709        C  0.88324803  0.69636783  0.58256064     0.85200
C710        C  0.90417931  0.71475675  0.63792414    -0.55100
C711        C  0.95474798  0.71464700  0.65716412     0.08100
C712        C  0.98013789  0.69494653  0.61960828     0.19100
C713        C  0.90908611  0.73141963  0.55415907    -0.55800
C714        C  0.95989487  0.73041979  0.57347609     0.08200
C715        C  0.90617475  0.64361109  0.58206013    -0.55300
C716        C  0.95692340  0.64273436  0.59988946     0.08800
H717        H  0.88175008  0.73134057  0.65878890     0.13300
H718        H  0.02126247  0.69435934  0.63625453    -0.01000
H719        H  0.88894641  0.75483576  0.52172300     0.13600
H720        H  0.88404307  0.61130397  0.56289580     0.13400
O721        O  0.52519632  0.97949506  0.98126340    -0.75700
O722        O  0.58915056  0.55268692  0.60472108    -0.75800
O723        O  0.52740907  0.97018683  0.57900017    -0.75800
O724        O  0.58669851  0.56161144  0.50777700    -0.75900
O725        O  0.52147437  0.61365161  0.49232125    -0.75800
O726        O  0.46218115  0.52222248  0.56353360    -0.75800
O727        O  0.52368657  0.60433843  0.59005619    -0.75800
O728        O  0.45973742  0.53115481  0.96659376    -0.75800
Ni729      Ni  0.55943131  0.51413102  0.54382107     1.25400
Ni730      Ni  0.48945264  0.56970588  0.52749594     1.25400
C731        C  0.48132235  0.49289975  0.95408792     0.86400
C732        C  0.56756262  0.59093788  0.61723012     0.86400
C733        C  0.48415295  0.98026030  0.58127807     0.86400
C734        C  0.56472628  0.60357438  0.49003525     0.86600
O735        O  0.08674781  0.52258107  0.50750815    -0.75700
O736        O  0.02737439  0.61288821  0.57962801    -0.75800
O737        O  0.08939394  0.53062082  0.60451281    -0.75800
O738        O  0.02486656  0.60467249  0.98169415    -0.75900
O739        O  0.95946760  0.55307726  0.96690610    -0.75800
O740        O  0.02399594  0.97902264  0.58971790    -0.75800
O741        O  0.96211598  0.56112011  0.56391101    -0.75800
O742        O  0.02148776  0.97081484  0.49178488    -0.75800
Ni743      Ni  0.05939406  0.56958006  0.54395803     1.25400
Ni744      Ni  0.98946884  0.51411953  0.52745893     1.25400
C745        C  0.06475765  0.98075176  0.48960349     0.86400
C746        C  0.98410350  0.60295327  0.58180794     0.86400
C747        C  0.06786764  0.49231309  0.61689464     0.86400
C748        C  0.98099451  0.59138046  0.95451833     0.86600
C749        C  0.38328457  0.88730775  0.58233988     0.85200
C750        C  0.40617151  0.93992055  0.58147347    -0.55100
C751        C  0.45691518  0.94064834  0.59942409     0.08100
C752        C  0.48015279  0.88853694  0.61976130     0.19100
C753        C  0.40928681  0.85199591  0.55429575    -0.55800
C754        C  0.46003979  0.85275437  0.57398829     0.08200
C755        C  0.40407585  0.86929528  0.63790799    -0.55300
C756        C  0.45464204  0.86938255  0.65734035     0.08800
H757        H  0.38405638  0.97218168  0.56200070     0.13300
H758        H  0.52130654  0.88950180  0.63603442    -0.01000
H759        H  0.38933752  0.82769290  0.52258145     0.13600
H760        H  0.38154593  0.85291145  0.65875642     0.13400
C761        C  0.16561766  0.88735804  0.98885149     0.85200
C762        C  0.14268218  0.94011308  0.98932797    -0.55100
C763        C  0.09193381  0.94097884  0.97150774     0.08100
C764        C  0.06872819  0.88875785  0.95181106     0.19100
C765        C  0.13978933  0.85231677  0.51727327    -0.55800
C766        C  0.08897981  0.85330677  0.99795926     0.08200
C767        C  0.14468877  0.86894193  0.93349849    -0.55300
C768        C  0.09411976  0.86904247  0.91426088     0.08800
H769        H  0.16481017  0.97242881  0.50847998     0.13300
H770        H  0.02760333  0.88933614  0.93516728    -0.01000
H771        H  0.15993410  0.82891179  0.54971702     0.13600
H772        H  0.16712437  0.85235845  0.91263982     0.13400
C773        C  0.16567788  0.94634692  0.73880722     0.85200
C774        C  0.14487870  0.96420095  0.68323445    -0.55100
C775        C  0.09432108  0.96410189  0.66388063     0.08100
C776        C  0.06882350  0.94492628  0.70151227     0.19100
C777        C  0.13966421  0.98181277  0.76668638    -0.55800
C778        C  0.08886144  0.98082003  0.74727446     0.08200
C779        C  0.14284785  0.89370927  0.73985453    -0.55300
C780        C  0.09211101  0.89285091  0.72187464     0.08800
H781        H  0.16737636  0.98057078  0.66234246     0.13300
H782        H  0.02772680  0.94426447  0.68466388    -0.01000
H783        H  0.15971987  0.50534820  0.79898544     0.13600
H784        H  0.16501480  0.86150536  0.75939053     0.13400
C785        C  0.38327424  0.94655897  0.83252851     0.85200
C786        C  0.40423902  0.96476336  0.88795224    -0.55100
C787        C  0.45481646  0.96471715  0.90711456     0.08100
C788        C  0.48016439  0.94513456  0.86946565     0.19100
C789        C  0.40905622  0.98177483  0.80420967    -0.55800
C790        C  0.45984636  0.98069027  0.82344200     0.08200
C791        C  0.40620269  0.89383381  0.83185841    -0.55300
C792        C  0.45694279  0.89295500  0.84966421     0.08800
H793        H  0.38183380  0.98124987  0.90889416     0.13300
H794        H  0.52130890  0.94459063  0.88595598    -0.01000
H795        H  0.38893025  0.50533555  0.77187794     0.13600
H796        H  0.38406655  0.86153857  0.81267070     0.13400
O797        O  0.52396175  0.72923527  0.83979041    -0.75700
O798        O  0.45951189  0.80303731  0.71682344    -0.75800
O799        O  0.52148312  0.72081288  0.74185975    -0.75800
O800        O  0.46211059  0.81130159  0.81379395    -0.75900
O801        O  0.52739407  0.86301895  0.82947056    -0.75800
O802        O  0.58676875  0.77252757  0.75753258    -0.75800
O803        O  0.52492632  0.85460398  0.73154242    -0.75800
O804        O  0.58937510  0.78080277  0.85450483    -0.75800
Ni805      Ni  0.48946860  0.76420553  0.77744967     1.25400
Ni806      Ni  0.55941449  0.81962955  0.79387900     1.25400
C807        C  0.56782295  0.74256482  0.86695843     0.86400
C808        C  0.48106452  0.84127953  0.70437559     0.86400
C809        C  0.56476099  0.73069375  0.73968484     0.86400
C810        C  0.48411603  0.85313398  0.83164593     0.86600
O811        O  0.02161924  0.86320061  0.74215291    -0.75700
O812        O  0.96198326  0.77242710  0.81356007    -0.75800
O813        O  0.02377533  0.85436987  0.83999257    -0.75800
O814        O  0.95967180  0.78104259  0.71665611    -0.75900
O815        O  0.02509229  0.72931791  0.73143343    -0.75800
O816        O  0.08919843  0.80264899  0.85476720    -0.75800
O817        O  0.02724839  0.72049246  0.82927467    -0.75800
O818        O  0.08688380  0.81126546  0.75786146    -0.75800
Ni819      Ni  0.98946139  0.81964852  0.77746670     1.25400
Ni820      Ni  0.05940699  0.76404243  0.79395764     1.25400
C821        C  0.06490920  0.85318234  0.74000363     0.86400
C822        C  0.98395752  0.73051181  0.83142184     0.86400
C823        C  0.06762473  0.84092210  0.86723477     0.86400
C824        C  0.98124365  0.74276677  0.70419051     0.86600
C825        C  0.66557401  0.63722138  0.73884416     0.85200
C826        C  0.64266817  0.68995506  0.73951936    -0.55100
C827        C  0.59193031  0.69086220  0.72167737     0.08100
C828        C  0.56868840  0.63869758  0.70184133     0.19100
C829        C  0.63974658  0.60200625  0.76711799    -0.55800
C830        C  0.58895890  0.60311630  0.74785053     0.08200
C831        C  0.64463698  0.61904161  0.68340979    -0.55300
C832        C  0.59405968  0.61911322  0.66421243     0.08800
H833        H  0.66481255  0.72223449  0.75873461     0.13300
H834        H  0.52754634  0.63926497  0.68532578    -0.01000
H835        H  0.65984028  0.57841775  0.79943967     0.13600
H836        H  0.66706240  0.60255352  0.66248967     0.13400
C837        C  0.88316437  0.63738149  0.83262655     0.85200
C838        C  0.90601383  0.69001243  0.83159282    -0.55100
C839        C  0.95675176  0.69084880  0.84955321     0.08100
C840        C  0.98002208  0.63876023  0.86988636     0.19100
C841        C  0.90914834  0.60191746  0.80471749    -0.55800
C842        C  0.95995181  0.60289031  0.82410773     0.08200
C843        C  0.90397697  0.61950596  0.88819276    -0.55300
C844        C  0.95453603  0.61958542  0.90752837     0.08800
H845        H  0.88385541  0.72223035  0.81207762     0.13300
H846        H  0.02112035  0.63940251  0.88671897    -0.01000
H847        H  0.88907120  0.57840853  0.77240522     0.13600
H848        H  0.88149011  0.60314236  0.90909771     0.13400
C849        C  0.75346088  0.63979708  0.73264617    -0.14700
C850        C  0.72197856  0.63797758  0.76251886     0.07500
C851        C  0.74373927  0.64090396  0.81580258    -0.14700
C852        C  0.79527933  0.64058416  0.83869129    -0.14700
C853        C  0.82676882  0.63810751  0.80886067     0.07500
C854        C  0.80500382  0.64027228  0.75553093    -0.14700
H855        H  0.73880683  0.64210832  0.69158831     0.11500
H856        H  0.72074461  0.64328678  0.83998780     0.11500
H857        H  0.80993806  0.64349407  0.87970960     0.11500
H858        H  0.82797965  0.64218503  0.73130243     0.11500
C859        C  0.53813817  0.99230073  0.80258735    -0.14700
C860        C  0.49246361  0.51184600  0.80326785     0.07500
C861        C  0.47900034  0.56176539  0.78615686    -0.14700
C862        C  0.51062799  0.59149000  0.76863678    -0.14700
C863        C  0.55630954  0.57194782  0.76797083     0.07500
C864        C  0.56976469  0.52202344  0.78506764    -0.14700
H865        H  0.54936409  0.95386056  0.81506106     0.11500
H866        H  0.44445292  0.57816943  0.78717338     0.11500
H867        H  0.49940524  0.62993270  0.75616524     0.11500
H868        H  0.60431330  0.50561807  0.78405467     0.11500
C869        C  0.00933405  0.99352421  0.76570050    -0.14700
C870        C  0.05610295  0.51198943  0.76741834     0.07500
C871        C  0.07081646  0.56069801  0.78751109    -0.14700
C872        C  0.03944803  0.59020832  0.80561995    -0.14700
C873        C  0.99268591  0.57173795  0.80391694     0.07500
C874        C  0.97796435  0.52303622  0.78380821    -0.14700
H875        H  0.99703964  0.95596784  0.75108981     0.11500
H876        H  0.10618716  0.57646244  0.78842100     0.11500
H877        H  0.05174478  0.62776276  0.82023424     0.11500
H878        H  0.94259364  0.50727316  0.78289831     0.11500
C879        C  0.24385023  0.94360764  0.81590499    -0.14700
C880        C  0.22207267  0.94564492  0.76257231     0.07500
C881        C  0.25354909  0.94303674  0.73273507    -0.14700
C882        C  0.30509099  0.94272548  0.75560932    -0.14700
C883        C  0.32686630  0.94577598  0.80888346     0.07500
C884        C  0.29539457  0.94408737  0.83877370    -0.14700
H885        H  0.22088693  0.94178239  0.84014986     0.11500
H886        H  0.23887352  0.94002565  0.69172386     0.11500
H887        H  0.32807825  0.94025695  0.73142221     0.11500
H888        H  0.31005153  0.94187347  0.87983502     0.11500
C889        C  0.30504071  0.89016970  0.50531048    -0.14700
C890        C  0.32687957  0.88807083  0.55863006     0.07500
C891        C  0.29545806  0.89071524  0.58853069    -0.14700
C892        C  0.24390319  0.89109261  0.56573215    -0.13100
C893        C  0.22204994  0.88811766  0.51246282     0.07500
C894        C  0.25347795  0.88982754  0.98251442    -0.14700
H895        H  0.32797255  0.89193317  0.98102805     0.11500
H896        H  0.31018944  0.89369857  0.62954099     0.11500
H897        H  0.22097528  0.89357093  0.58997750     0.11500
H898        H  0.23876654  0.89211772  0.94145918     0.11500
C899        C  0.97835580  0.81104377  0.53480341    -0.14700
C900        C  0.99255198  0.76167828  0.55335971     0.07500
C901        C  0.03895434  0.74284616  0.55414005    -0.14700
C902        C  0.07052808  0.77269364  0.53665388    -0.14700
C903        C  0.05632986  0.82205688  0.51809271     0.07500
C904        C  0.00992878  0.84089033  0.51731538    -0.14700
H905        H  0.94326953  0.82700948  0.53469648     0.11500
H906        H  0.05079894  0.70481264  0.56765496     0.11500
H907        H  0.10561366  0.75672808  0.53675935     0.11500
H908        H  0.99808225  0.87892159  0.00379581     0.11500
C909        C  0.56762192  0.77049419  0.56965230    -0.14700
C910        C  0.55611126  0.76253003  0.51710794     0.07500
C911        C  0.51266524  0.78417362  0.98328699    -0.14700
C912        C  0.48120977  0.81329328  0.50169418    -0.14700
C913        C  0.49272445  0.82126366  0.55423754     0.07500
C914        C  0.53616697  0.79961488  0.58805895    -0.14700
H915        H  0.60044227  0.75345490  0.59653716     0.11500
H916        H  0.50339894  0.77938137  0.94251461     0.11500
H917        H  0.44839090  0.83033410  0.97480987     0.11500
H918        H  0.54543424  0.80441123  0.62883076     0.11500
C919        C  0.74381269  0.69369760  0.56606710    -0.14700
C920        C  0.72198738  0.69577249  0.51274526     0.07500
C921        C  0.75341629  0.69305797  0.98285726    -0.14700
C922        C  0.80497093  0.69263670  0.50566877    -0.14700
C923        C  0.82681502  0.69563197  0.55893863     0.07500
C924        C  0.79537344  0.69399661  0.58887518    -0.14700
H925        H  0.72087358  0.69197613  0.59034357     0.11500
H926        H  0.73868653  0.69005684  0.94184754     0.11500
H927        H  0.82790688  0.69011355  0.98143518     0.11500
H928        H  0.81006833  0.69172563  0.62993150     0.11500
loop_ 
_geom_bond_atom_site_label_1 
_geom_bond_atom_site_label_2 
_geom_bond_distance 
_geom_bond_site_symmetry_2 
_ccdc_geom_bond_type 
C1            C2   1.535       .  S
C1            C7   1.531       .  S
C1          C237   1.546       .  S
C1          C456   1.524       .  S
C2            H9   1.085       .  S
C2            C3   1.363       .  D
C3            C4   1.539       .  S
C3          C111   1.473       .  S
C4            C8   1.542       .  S
C4            C6   1.533       .  S
C4           H10   1.110       .  S
C5          C233   1.546   1_554  S
C5           H11   1.086       .  S
C5          C238   1.369   1_554  D
C6          C237   1.369       .  D
C6          C446   1.478       .  S
C7          H244   1.087       .  S
C7            C8   1.367       .  D
C8          C270   1.481       .  S
H12         C239   1.087   1_554  S
C13          C14   1.534       .  S
C13          C19   1.532       .  S
C13          C17   1.546       .  S
C13         C227   1.525       .  S
C14          H21   1.084       .  S
C14          C15   1.363       .  D
C15          C16   1.540       .  S
C15         C128   1.475       .  S
C16          C20   1.542       .  S
C16          C18   1.534       .  S
C16          H22   1.110   1_655  S
C17          H23   1.086       .  S
C17          C18   1.370       .  D
C18         C204   1.481       .  S
C19          H24   1.087       .  S
C19          C20   1.367       .  D
C20          C50   1.481       .  S
O25        Ni729   1.921       .  S
O25         C499   1.279       .  A
O26         Ni33   1.915       .  S
O26          C36   1.282       .  A
O27        Ni497   1.924       .  S
O27          C37   1.282       .  A
O28         Ni33   1.915       .  S
O28          C38   1.281   1_554  A
O29         Ni34   1.924   1_556  S
O29          C38   1.282       .  A
O30         Ni34   1.915       .  S
O30         C501   1.281   1_545  A
O31         Ni34   1.921       .  S
O31          C36   1.279       .  A
O32        Ni266   1.915       .  S
O32          C35   1.282   1_545  A
Ni33        O721   1.921   1_544  S
Ni33        O491   1.924   1_545  S
Ni33        Ni34   2.389       .  S
Ni34        O264   1.915   1_554  S
C35         C555   1.475       .  S
C35         O489   1.279       .  A
C36         C136   1.475       .  S
C37          C55   1.481       .  S
C37         O494   1.281       .  A
C38         C240   1.481       .  S
O39         Ni47   1.915       .  S
O39         C513   1.281   1_544  A
O40         Ni47   1.922       .  S
O40          C50   1.281   1_455  A
O41         Ni47   1.913       .  S
O41          C51   1.282   1_545  A
O42        Ni279   1.921       .  S
O42          C52   1.280   1_455  A
O43        Ni280   1.913       .  S
O43          C52   1.282       .  A
O44        Ni512   1.920   1_455  S
O44         C515   1.280       .  A
O45         Ni48   1.915       .  S
O45          C50   1.281       .  A
O46        Ni512   1.922   1_456  S
O46          C49   1.281       .  A
Ni47        O274   1.921   1_554  S
Ni47        Ni48   2.389   1_455  S
Ni48        O275   1.913   1_554  S
Ni48        O508   1.920   1_645  S
Ni48        O510   1.922   1_644  S
C49         C299   1.481       .  S
C49         O503   1.281   1_556  A
C51         C543   1.474       .  S
C51         O508   1.280       .  A
C52         C148   1.474       .  S
C53          C54   1.531       .  S
C53          C59   1.535       .  S
C53          C57   1.546       .  S
C53         C194   1.524       .  S
C54          H61   1.087       .  S
C54          C55   1.367       .  D
C55          C56   1.542       .  S
C56          C60   1.539       .  S
C56          C58   1.533       .  S
C56          H62   1.110       .  S
C57          H63   1.086       .  S
C57          C58   1.369       .  D
C58         C217   1.478       .  S
C59          H64   1.085       .  S
C59          C60   1.363       .  D
C60         C112   1.473       .  S
C65          C66   1.532       .  S
C65          C71   1.534       .  S
C65         C301   1.546       .  S
C65         C429   1.525       .  S
C66         H305   1.087       .  S
C66          C67   1.367       .  D
C67          C68   1.542       .  S
C67         C281   1.481       .  S
C68          C72   1.540       .  S
C68          C70   1.534       .  S
C68          H74   1.110       .  S
C69         C297   1.546   1_554  S
C69          H75   1.086       .  S
C69         C302   1.370   1_554  D
C70         C301   1.370       .  D
C70         C439   1.481       .  S
C71          H76   1.084       .  S
C71          C72   1.363       .  D
C72         C127   1.475       .  S
H73         C298   1.087   1_554  S
C77          C78   1.534       .  S
C77          C83   1.531       .  S
C77          C81   1.546       .  S
C77         C184   1.524       .  S
C78          H85   1.085       .  S
C78          C79   1.363       .  D
C79          C80   1.540       .  S
C79         C515   1.474       .  S
C80          C84   1.542       .  S
C80          C82   1.535       .  S
C80          H86   1.110       .  S
C81         H551   1.085       .  S
C81          C82   1.370       .  D
C82         C638   1.481       .  S
C83          H88   1.087       .  S
C83          C84   1.366       .  D
C84         C125   1.481       .  S
H87         C545   1.085   1_545  S
C89          C90   1.534       .  S
C89          C95   1.532       .  S
C89          C93   1.546       .  S
C89         C187   1.524       .  S
C90          H97   1.084       .  S
C90          C91   1.363       .  D
C91          C92   1.541       .  S
C91         C499   1.475       .  S
C92          C96   1.542       .  S
C92          C94   1.534       .  S
C92          H98   1.110       .  S
C93         H563   1.086       .  S
C93          C94   1.369       .  D
C94         C628   1.479       .  S
C95         H100   1.087       .  S
C95          C96   1.366       .  D
C96         C114   1.481       .  S
H99         C557   1.086   1_545  S
O101       Ni109   1.920       .  S
O101        C111   1.279       .  A
O102       Ni109   1.912       .  S
O102        C112   1.282       .  A
O103       Ni109   1.922       .  S
O103        C113   1.281       .  A
O104       Ni109   1.915       .  S
O104        C114   1.281       .  A
O105       Ni110   1.922       .  S
O105        C114   1.281       .  A
O106       Ni110   1.915       .  S
O106        C113   1.281       .  A
O107       Ni110   1.920       .  S
O107        C112   1.279       .  A
O108       Ni110   1.912       .  S
O108        C111   1.282       .  A
Ni109      Ni110   2.389       .  S
C113        C131   1.481       .  S
O115       Ni123   1.923   1_455  S
O115        C125   1.281       .  A
O116       Ni123   1.915       .  S
O116        C126   1.281       .  A
O117       Ni123   1.922   1_455  S
O117        C127   1.280       .  A
O118       Ni123   1.914       .  S
O118        C128   1.282       .  A
O119       Ni124   1.922       .  S
O119        C128   1.280   1_455  A
O120       Ni124   1.914       .  S
O120        C127   1.282       .  A
O121       Ni124   1.923       .  S
O121        C126   1.281   1_455  A
O122       Ni124   1.915       .  S
O122        C125   1.281       .  A
Ni123      Ni124   2.388   1_655  S
C126        C143   1.481       .  S
C129        C130   1.532       .  S
C129        C135   1.534       .  S
C129        C133   1.546       .  S
C129        C154   1.524       .  S
C130        H137   1.087       .  S
C130        C131   1.366       .  D
C131        C132   1.542       .  S
C132        C136   1.541       .  S
C132        C134   1.534       .  S
C132        H138   1.110       .  S
C133        H139   1.086       .  S
C133        C134   1.369       .  D
C134        C167   1.479       .  S
C135        H140   1.084       .  S
C135        C136   1.363       .  D
C141        C142   1.531       .  S
C141        C147   1.534       .  S
C141        C145   1.546       .  S
C141        C157   1.524       .  S
C142        H149   1.087       .  S
C142        C143   1.366       .  D
C143        C144   1.542       .  S
C144        C148   1.540       .  S
C144        C146   1.535       .  S
C144        H150   1.110   1_655  S
C145        H151   1.085       .  S
C145        C146   1.370       .  D
C146        C177   1.481       .  S
C147        H152   1.085       .  S
C147        C148   1.363       .  D
C153        C154   1.408       .  A
C153        C158   1.396       .  A
C153        H159   1.080       .  S
C154        C155   1.407       .  A
C155        C156   1.396       .  A
C155        H160   1.083       .  S
C156        C157   1.408       .  A
C156        H161   1.080       .  S
C157        C158   1.407       .  A
C158        H162   1.083       .  S
C163        C628   1.404       .  A
C163        C632   1.395       .  A
C163        H169   1.080       .  S
C164        C558   1.479   1_545  S
C164        C165   1.402       .  A
C164        C627   1.404   1_545  A
C165        C166   1.395       .  A
C165        H170   1.083       .  S
C166        C167   1.404       .  A
C166        H171   1.080       .  S
C167        C168   1.402       .  A
C168        C627   1.395   1_545  A
C168        H172   1.083       .  S
C173        C638   1.405       .  A
C173        C642   1.395   1_455  A
C173        H179   1.080   1_455  S
C174        C546   1.481   1_545  S
C174        C175   1.403       .  A
C174        C637   1.405   1_545  A
C175        C176   1.394       .  A
C175        H180   1.082       .  S
C176        C177   1.405   1_455  A
C176        H181   1.080       .  S
C177        C178   1.403       .  A
C178        C637   1.395   1_645  A
C178        H182   1.082       .  S
C183        C184   1.407       .  A
C183        C188   1.396       .  A
C183        H189   1.083       .  S
C184        C185   1.408       .  A
C185        C186   1.396       .  A
C185        H190   1.080       .  S
C186        C187   1.407       .  A
C186        H191   1.083       .  S
C187        C188   1.408       .  A
C188        H192   1.080       .  S
C193        C194   1.407       .  A
C193        C430   1.397   1_554  A
C193        H431   1.083   1_554  S
C194        C195   1.408       .  A
C195        C196   1.396       .  A
C195        H200   1.080       .  S
C196        C197   1.407       .  A
C196        H201   1.083       .  S
C197        C297   1.525   1_554  S
C197        C430   1.409   1_554  A
C198        C425   1.397       .  A
C198        C429   1.409       .  A
C198        H202   1.080       .  S
H199        C425   1.083       .  S
C203        C204   1.403       .  A
C203        C208   1.395   1_655  A
C203        H209   1.083       .  S
C204        C205   1.405   1_655  A
C205        C206   1.395       .  A
C205        H210   1.080       .  S
C206        C207   1.403       .  A
C206        H211   1.083       .  S
C207        C302   1.481   1_554  S
C207        C208   1.405       .  A
C208        H444   1.080   1_455  S
H212        C440   1.080   1_655  S
C213        C214   1.403       .  A
C213        C218   1.395       .  A
C213        H219   1.083       .  S
C214        C238   1.478   1_554  S
C214        C447   1.405   1_554  A
C215        C446   1.405       .  A
C215        C448   1.395       .  A
C215        H220   1.083       .  S
C216        C217   1.403       .  A
C216        C447   1.395   1_554  A
C216        H453   1.083   1_554  S
C217        C218   1.405       .  A
C218        H222   1.083       .  S
H221        C448   1.083       .  S
C223        C224   1.407       .  A
C223        C228   1.397       .  A
C223        H229   1.083       .  S
C224        C233   1.524   1_554  S
C224        C457   1.408   1_554  A
C225        C456   1.408       .  A
C225        C458   1.396       .  A
C225        H230   1.080       .  S
C226        C227   1.407       .  A
C226        C457   1.396   1_554  A
C226        H463   1.083   1_554  S
C227        C228   1.409       .  A
C228        H232   1.080       .  S
H231        C458   1.083       .  S
C233        C234   1.535       .  S
C233        C239   1.531       .  S
C234        H241   1.085       .  S
C234        C235   1.363       .  D
C235        C236   1.539       .  S
C235        C343   1.473       .  S
C236        C240   1.542       .  S
C236        C238   1.533       .  S
C236        H242   1.110       .  S
C237        H243   1.086       .  S
C239        C240   1.367       .  D
C245        C246   1.534       .  S
C245        C251   1.532       .  S
C245        C249   1.546       .  S
C245        C459   1.525       .  S
C246        H253   1.084       .  S
C246        C247   1.363       .  D
C247        C248   1.540       .  S
C247        C360   1.475       .  S
C248        C252   1.542       .  S
C248        C250   1.534       .  S
C248        H254   1.110   1_655  S
C249        H255   1.086       .  S
C249        C250   1.370       .  D
C250        C436   1.481       .  S
C251        H256   1.087       .  S
C251        C252   1.367       .  D
C252        C282   1.481       .  S
O257       Ni497   1.921   1_556  S
O257        C731   1.279       .  A
O258       Ni265   1.915       .  S
O258        C268   1.282       .  A
O259       Ni729   1.924       .  S
O259        C269   1.282       .  A
O260       Ni265   1.915       .  S
O260        C270   1.281       .  A
O261       Ni266   1.924       .  S
O261        C270   1.282       .  A
O262       Ni266   1.915       .  S
O262        C733   1.281   1_545  A
O263       Ni266   1.921       .  S
O263        C268   1.279       .  A
O264        C267   1.282   1_545  A
Ni265       O489   1.921   1_545  S
Ni265       O723   1.924   1_545  S
Ni265      Ni266   2.389       .  S
C267        C787   1.475       .  S
C267        O721   1.279       .  A
C268        C368   1.475       .  S
C269        C287   1.481       .  S
C269        O726   1.281       .  A
O271       Ni279   1.915       .  S
O271        C745   1.281   1_545  A
O272       Ni279   1.922       .  S
O272        C282   1.281   1_455  A
O273       Ni279   1.913       .  S
O273        C283   1.282   1_545  A
O274        C284   1.280   1_455  A
O275        C284   1.282       .  A
O276       Ni744   1.920   1_455  S
O276        C747   1.280       .  A
O277       Ni280   1.915       .  S
O277        C282   1.281       .  A
O278       Ni744   1.922   1_455  S
O278        C281   1.281       .  A
Ni279      Ni280   2.389   1_455  S
Ni280       O740   1.920   1_645  S
Ni280       O742   1.922   1_645  S
C281        O735   1.281       .  A
C283        C775   1.474       .  S
C283        O740   1.280       .  A
C284        C380   1.474       .  S
C285        C286   1.531       .  S
C285        C291   1.535       .  S
C285        C289   1.546       .  S
C285        C426   1.524       .  S
C286        H293   1.087       .  S
C286        C287   1.367       .  D
C287        C288   1.542       .  S
C288        C292   1.539       .  S
C288        C290   1.533       .  S
C288        H294   1.110       .  S
C289        H295   1.086       .  S
C289        C290   1.369       .  D
C290        C449   1.478       .  S
C291        H296   1.085       .  S
C291        C292   1.363       .  D
C292        C344   1.473       .  S
C297        C298   1.532       .  S
C297        C303   1.534       .  S
C298        C299   1.367       .  D
C299        C300   1.542       .  S
C300        C304   1.540       .  S
C300        C302   1.534       .  S
C300        H306   1.110       .  S
C301        H307   1.086       .  S
C303        H308   1.084       .  S
C303        C304   1.363       .  D
C304        C359   1.475       .  S
C309        C310   1.534       .  S
C309        C315   1.531       .  S
C309        C313   1.546       .  S
C309        C416   1.524       .  S
C310        H317   1.085       .  S
C310        C311   1.363       .  D
C311        C312   1.540       .  S
C311        C747   1.474       .  S
C312        C316   1.542       .  S
C312        C314   1.535       .  S
C312        H318   1.110       .  S
C313        H783   1.085       .  S
C313        C314   1.370       .  D
C314        C870   1.481       .  S
C315        H320   1.087       .  S
C315        C316   1.366       .  D
C316        C357   1.481       .  S
H319        C777   1.085   1_545  S
C321        C322   1.534       .  S
C321        C327   1.532       .  S
C321        C325   1.546       .  S
C321        C419   1.524       .  S
C322        H329   1.084       .  S
C322        C323   1.363       .  D
C323        C324   1.541       .  S
C323        C731   1.475       .  S
C324        C328   1.542       .  S
C324        C326   1.534       .  S
C324        H330   1.110       .  S
C325        H795   1.086       .  S
C325        C326   1.369       .  D
C326        C860   1.479       .  S
C327        H332   1.087       .  S
C327        C328   1.366       .  D
C328        C346   1.481       .  S
H331        C789   1.086   1_545  S
O333       Ni341   1.920       .  S
O333        C343   1.279       .  A
O334       Ni341   1.912       .  S
O334        C344   1.282       .  A
O335       Ni341   1.922       .  S
O335        C345   1.281       .  A
O336       Ni341   1.915       .  S
O336        C346   1.281       .  A
O337       Ni342   1.922       .  S
O337        C346   1.281       .  A
O338       Ni342   1.915       .  S
O338        C345   1.281       .  A
O339       Ni342   1.920       .  S
O339        C344   1.279       .  A
O340       Ni342   1.912       .  S
O340        C343   1.282       .  A
Ni341      Ni342   2.389       .  S
C345        C363   1.481       .  S
O347       Ni355   1.923   1_455  S
O347        C357   1.281       .  A
O348       Ni355   1.915       .  S
O348        C358   1.281       .  A
O349       Ni355   1.922   1_455  S
O349        C359   1.280       .  A
O350       Ni355   1.914       .  S
O350        C360   1.282       .  A
O351       Ni356   1.922       .  S
O351        C360   1.280   1_455  A
O352       Ni356   1.914       .  S
O352        C359   1.282       .  A
O353       Ni356   1.923       .  S
O353        C358   1.281   1_455  A
O354       Ni356   1.915       .  S
O354        C357   1.281       .  A
Ni355      Ni356   2.388   1_655  S
C358        C375   1.481       .  S
C361        C362   1.532       .  S
C361        C367   1.534       .  S
C361        C365   1.546       .  S
C361        C386   1.524       .  S
C362        H369   1.087       .  S
C362        C363   1.366       .  D
C363        C364   1.542       .  S
C364        C368   1.541       .  S
C364        C366   1.534       .  S
C364        H370   1.110       .  S
C365        H371   1.086       .  S
C365        C366   1.369       .  D
C366        C399   1.479       .  S
C367        H372   1.084       .  S
C367        C368   1.363       .  D
C373        C374   1.531       .  S
C373        C379   1.534       .  S
C373        C377   1.546       .  S
C373        C389   1.524       .  S
C374        H381   1.087       .  S
C374        C375   1.366       .  D
C375        C376   1.542       .  S
C376        C380   1.540       .  S
C376        C378   1.535       .  S
C376        H382   1.110   1_655  S
C377        H383   1.085       .  S
C377        C378   1.370       .  D
C378        C409   1.481       .  S
C379        H384   1.085       .  S
C379        C380   1.363       .  D
C385        C386   1.408       .  A
C385        C390   1.396       .  A
C385        H391   1.080       .  S
C386        C387   1.407       .  A
C387        C388   1.396       .  A
C387        H392   1.083       .  S
C388        C389   1.408       .  A
C388        H393   1.080       .  S
C389        C390   1.407       .  A
C390        H394   1.083       .  S
C395        C860   1.404       .  A
C395        C864   1.395       .  A
C395        H401   1.080       .  S
C396        C790   1.479   1_545  S
C396        C859   1.404   1_545  A
C396        C397   1.402       .  A
C397        C398   1.395       .  A
C397        H402   1.083       .  S
C398        C399   1.404       .  A
C398        H403   1.080       .  S
C399        C400   1.402       .  A
C400        C859   1.395   1_545  A
C400        H404   1.083       .  S
C405        C870   1.405       .  A
C405        C874   1.395   1_455  A
C405        H411   1.080   1_455  S
C406        C778   1.481   1_545  S
C406        C869   1.405   1_545  A
C406        C407   1.403       .  A
C407        C408   1.394       .  A
C407        H412   1.082       .  S
C408        C409   1.405   1_455  A
C408        H413   1.080       .  S
C409        C410   1.403       .  A
C410        C869   1.395   1_645  A
C410        H414   1.082       .  S
C415        C416   1.407       .  A
C415        C420   1.396       .  A
C415        H421   1.083       .  S
C416        C417   1.408       .  A
C417        C418   1.396       .  A
C417        H422   1.080       .  S
C418        C419   1.407       .  A
C418        H423   1.083       .  S
C419        C420   1.408       .  A
C420        H424   1.080       .  S
C425        C426   1.407       .  A
C426        C427   1.408       .  A
C427        C428   1.396       .  A
C427        H432   1.080       .  S
C428        C429   1.407       .  A
C428        H433   1.083       .  S
C430        H434   1.080       .  S
C435        C436   1.403       .  A
C435        C440   1.395   1_655  A
C435        H441   1.083       .  S
C436        C437   1.404   1_655  A
C437        C438   1.395       .  A
C437        H442   1.080       .  S
C438        C439   1.403       .  A
C438        H443   1.083       .  S
C439        C440   1.404       .  A
C445        C446   1.403       .  A
C445        C450   1.395       .  A
C445        H451   1.083       .  S
C447        H452   1.083       .  S
C448        C449   1.403       .  A
C449        C450   1.405       .  A
C450        H454   1.083       .  S
C455        C456   1.407       .  A
C455        C460   1.397       .  A
C455        H461   1.083       .  S
C457        H462   1.080       .  S
C458        C459   1.407       .  A
C459        C460   1.409       .  A
C460        H464   1.080       .  S
C465        C466   1.535       .  S
C465        C471   1.531       .  S
C465        C701   1.546       .  S
C465        C920   1.524       .  S
C466        H473   1.085       .  S
C466        C467   1.363       .  D
C467        C468   1.539       .  S
C467        C575   1.473       .  S
C468        C472   1.542       .  S
C468        C470   1.533       .  S
C468        H474   1.110       .  S
C469        C697   1.546   1_554  S
C469        H475   1.086       .  S
C469        C702   1.369   1_554  D
C470        C701   1.369       .  D
C470        C910   1.478       .  S
C471        H708   1.087       .  S
C471        C472   1.367       .  D
C472        C734   1.481       .  S
H476        C703   1.087   1_554  S
C477        C478   1.534       .  S
C477        C483   1.532       .  S
C477        C481   1.546       .  S
C477        C691   1.525       .  S
C478        H485   1.084       .  S
C478        C479   1.363       .  D
C479        C480   1.540       .  S
C479        C592   1.475       .  S
C480        C484   1.542       .  S
C480        C482   1.534       .  S
C480        H486   1.110   1_655  S
C481        H487   1.086       .  S
C481        C482   1.370       .  D
C482        C668   1.481       .  S
C483        H488   1.087       .  S
C483        C484   1.367       .  D
C484        C514   1.481       .  S
O490       Ni497   1.915       .  S
O490        C500   1.282       .  A
O491        C501   1.282       .  A
O492       Ni497   1.915       .  S
O492        C502   1.281   1_554  A
O493       Ni498   1.924   1_556  S
O493        C502   1.282       .  A
O494       Ni498   1.915       .  S
O495       Ni498   1.921       .  S
O495        C500   1.279       .  A
O496       Ni730   1.915       .  S
O496        C499   1.282       .  A
Ni497      Ni498   2.389       .  S
Ni498       O728   1.915   1_554  S
C500        C600   1.475       .  S
C501        C519   1.481       .  S
C502        C704   1.481       .  S
O503       Ni511   1.915       .  S
O504       Ni511   1.922       .  S
O504        C514   1.281   1_455  A
O505       Ni511   1.913       .  S
O505        C515   1.282       .  A
O506       Ni743   1.921       .  S
O506        C516   1.280   1_455  A
O507       Ni744   1.913       .  S
O507        C516   1.282       .  A
O509       Ni512   1.915       .  S
O509        C514   1.281       .  A
O510        C513   1.281       .  A
Ni511       O738   1.921   1_554  S
Ni511      Ni512   2.389   1_455  S
Ni512       O739   1.913   1_554  S
C513        C763   1.481       .  S
C516        C612   1.474       .  S
C517        C518   1.531       .  S
C517        C523   1.535       .  S
C517        C521   1.546       .  S
C517        C658   1.524       .  S
C518        H525   1.087       .  S
C518        C519   1.367       .  D
C519        C520   1.542       .  S
C520        C524   1.539       .  S
C520        C522   1.533       .  S
C520        H526   1.110       .  S
C521        H527   1.086       .  S
C521        C522   1.369       .  D
C522        C681   1.478       .  S
C523        H528   1.085       .  S
C523        C524   1.363       .  D
C524        C576   1.473       .  S
C529        C530   1.532       .  S
C529        C535   1.534       .  S
C529        C765   1.546       .  S
C529        C893   1.525       .  S
C530        H769   1.087       .  S
C530        C531   1.367       .  D
C531        C532   1.542       .  S
C531        C745   1.481       .  S
C532        C536   1.540       .  S
C532        C534   1.534       .  S
C532        H538   1.110       .  S
C533        C761   1.546   1_554  S
C533        H539   1.086       .  S
C533        C766   1.370   1_554  D
C534        C765   1.370       .  D
C534        C903   1.481       .  S
C535        H540   1.084       .  S
C535        C536   1.363       .  D
C536        C591   1.475       .  S
H537        C762   1.087   1_554  S
C541        C542   1.534       .  S
C541        C547   1.531       .  S
C541        C545   1.546       .  S
C541        C648   1.524       .  S
C542        H549   1.085       .  S
C542        C543   1.363       .  D
C543        C544   1.540       .  S
C544        C548   1.542       .  S
C544        C546   1.535       .  S
C544        H550   1.110       .  S
C545        C546   1.370       .  D
C547        H552   1.087       .  S
C547        C548   1.366       .  D
C548        C589   1.481       .  S
C553        C554   1.534       .  S
C553        C559   1.532       .  S
C553        C557   1.546       .  S
C553        C651   1.524       .  S
C554        H561   1.084       .  S
C554        C555   1.363       .  D
C555        C556   1.541       .  S
C556        C560   1.542       .  S
C556        C558   1.534       .  S
C556        H562   1.110       .  S
C557        C558   1.369       .  D
C559        H564   1.087       .  S
C559        C560   1.366       .  D
C560        C578   1.481       .  S
O565       Ni573   1.920       .  S
O565        C575   1.279       .  A
O566       Ni573   1.912       .  S
O566        C576   1.282       .  A
O567       Ni573   1.922       .  S
O567        C577   1.281       .  A
O568       Ni573   1.915       .  S
O568        C578   1.281       .  A
O569       Ni574   1.922       .  S
O569        C578   1.281       .  A
O570       Ni574   1.915       .  S
O570        C577   1.281       .  A
O571       Ni574   1.920       .  S
O571        C576   1.279       .  A
O572       Ni574   1.912       .  S
O572        C575   1.282       .  A
Ni573      Ni574   2.389       .  S
C577        C595   1.481       .  S
O579       Ni587   1.923   1_455  S
O579        C589   1.281       .  A
O580       Ni587   1.915       .  S
O580        C590   1.281       .  A
O581       Ni587   1.922   1_455  S
O581        C591   1.280       .  A
O582       Ni587   1.914       .  S
O582        C592   1.282       .  A
O583       Ni588   1.922       .  S
O583        C592   1.280   1_455  A
O584       Ni588   1.914       .  S
O584        C591   1.282       .  A
O585       Ni588   1.923       .  S
O585        C590   1.281   1_455  A
O586       Ni588   1.915       .  S
O586        C589   1.281       .  A
Ni587      Ni588   2.388   1_655  S
C590        C607   1.481       .  S
C593        C594   1.532       .  S
C593        C599   1.534       .  S
C593        C597   1.546       .  S
C593        C618   1.524       .  S
C594        H601   1.087       .  S
C594        C595   1.366       .  D
C595        C596   1.542       .  S
C596        C600   1.541       .  S
C596        C598   1.534       .  S
C596        H602   1.110       .  S
C597        H603   1.086       .  S
C597        C598   1.369       .  D
C598        C631   1.479       .  S
C599        H604   1.084       .  S
C599        C600   1.363       .  D
C605        C606   1.531       .  S
C605        C611   1.534       .  S
C605        C609   1.546       .  S
C605        C621   1.524       .  S
C606        H613   1.087       .  S
C606        C607   1.366       .  D
C607        C608   1.542       .  S
C608        C612   1.540       .  S
C608        C610   1.535       .  S
C608        H614   1.110   1_655  S
C609        H615   1.085       .  S
C609        C610   1.370       .  D
C610        C641   1.481       .  S
C611        H616   1.085       .  S
C611        C612   1.363       .  D
C617        C618   1.408       .  A
C617        C622   1.396       .  A
C617        H623   1.080       .  S
C618        C619   1.407       .  A
C619        C620   1.396       .  A
C619        H624   1.083       .  S
C620        C621   1.408       .  A
C620        H625   1.080       .  S
C621        C622   1.407       .  A
C622        H626   1.083       .  S
C627        H633   1.080       .  S
C628        C629   1.402       .  A
C629        C630   1.395       .  A
C629        H634   1.083       .  S
C630        C631   1.404       .  A
C630        H635   1.080       .  S
C631        C632   1.402       .  A
C632        H636   1.083       .  S
C637        H643   1.080   1_455  S
C638        C639   1.403       .  A
C639        C640   1.394       .  A
C639        H644   1.082       .  S
C640        C641   1.405   1_455  A
C640        H645   1.080       .  S
C641        C642   1.403       .  A
C642        H646   1.082       .  S
C647        C648   1.407       .  A
C647        C652   1.396       .  A
C647        H653   1.083       .  S
C648        C649   1.408       .  A
C649        C650   1.396       .  A
C649        H654   1.080       .  S
C650        C651   1.407       .  A
C650        H655   1.083       .  S
C651        C652   1.408       .  A
C652        H656   1.080       .  S
C657        C658   1.407       .  A
C657        C894   1.397   1_554  A
C657        H895   1.083   1_554  S
C658        C659   1.408       .  A
C659        C660   1.396       .  A
C659        H664   1.080       .  S
C660        C661   1.407       .  A
C660        H665   1.083       .  S
C661        C761   1.525   1_554  S
C661        C894   1.409   1_554  A
C662        C889   1.397       .  A
C662        C893   1.409       .  A
C662        H666   1.080       .  S
H663        C889   1.083       .  S
C667        C668   1.403       .  A
C667        C672   1.395   1_655  A
C667        H673   1.083       .  S
C668        C669   1.404   1_655  A
C669        C670   1.395       .  A
C669        H674   1.080       .  S
C670        C671   1.403       .  A
C670        H675   1.083       .  S
C671        C766   1.481   1_554  S
C671        C672   1.404       .  A
C672        H908   1.080   1_455  S
H676        C904   1.080   1_655  S
C677        C678   1.403       .  A
C677        C682   1.395       .  A
C677        H683   1.083       .  S
C678        C702   1.478   1_554  S
C678        C911   1.405   1_554  A
C679        C910   1.405       .  A
C679        C912   1.395       .  A
C679        H684   1.083       .  S
C680        C911   1.395   1_554  A
C680        C681   1.403       .  A
C680        H917   1.083   1_554  S
C681        C682   1.405       .  A
C682        H686   1.083       .  S
H685        C912   1.083       .  S
C687        C688   1.407       .  A
C687        C692   1.397       .  A
C687        H693   1.083       .  S
C688        C697   1.524   1_554  S
C688        C921   1.408   1_554  A
C689        C920   1.408       .  A
C689        C922   1.396       .  A
C689        H694   1.080       .  S
C690        C921   1.396   1_554  A
C690        C691   1.407       .  A
C690        H927   1.083   1_554  S
C691        C692   1.409       .  A
C692        H696   1.080       .  S
H695        C922   1.083       .  S
C697        C698   1.535       .  S
C697        C703   1.531       .  S
C698        H705   1.085       .  S
C698        C699   1.363       .  D
C699        C700   1.539       .  S
C699        C807   1.473       .  S
C700        C704   1.542       .  S
C700        C702   1.533       .  S
C700        H706   1.110       .  S
C701        H707   1.086       .  S
C703        C704   1.367       .  D
C709        C710   1.534       .  S
C709        C715   1.532       .  S
C709        C713   1.546       .  S
C709        C923   1.525       .  S
C710        H717   1.084       .  S
C710        C711   1.363       .  D
C711        C712   1.540       .  S
C711        C824   1.475       .  S
C712        C716   1.542       .  S
C712        C714   1.534       .  S
C712        H718   1.110   1_655  S
C713        H719   1.086       .  S
C713        C714   1.370       .  D
C714        C900   1.481       .  S
C715        H720   1.087       .  S
C715        C716   1.367       .  D
C716        C746   1.481       .  S
O722       Ni729   1.915       .  S
O722        C732   1.282       .  A
O723        C733   1.282       .  A
O724       Ni729   1.915       .  S
O724        C734   1.281       .  A
O725       Ni730   1.924       .  S
O725        C734   1.282       .  A
O726       Ni730   1.915       .  S
O727       Ni730   1.921       .  S
O727        C732   1.279       .  A
O728        C731   1.282       .  A
Ni729      Ni730   2.389       .  S
C732        C832   1.475       .  S
C733        C751   1.481       .  S
O735       Ni743   1.915       .  S
O736       Ni743   1.922       .  S
O736        C746   1.281   1_455  A
O737       Ni743   1.913       .  S
O737        C747   1.282       .  A
O738        C748   1.280   1_455  A
O739        C748   1.282       .  A
O741       Ni744   1.915       .  S
O741        C746   1.281       .  A
O742        C745   1.281       .  A
Ni743      Ni744   2.389   1_455  S
C748        C844   1.474       .  S
C749        C750   1.531       .  S
C749        C755   1.535       .  S
C749        C753   1.546       .  S
C749        C890   1.524       .  S
C750        H757   1.087       .  S
C750        C751   1.367       .  D
C751        C752   1.542       .  S
C752        C756   1.539       .  S
C752        C754   1.533       .  S
C752        H758   1.110       .  S
C753        H759   1.086       .  S
C753        C754   1.369       .  D
C754        C913   1.478       .  S
C755        H760   1.085       .  S
C755        C756   1.363       .  D
C756        C808   1.473       .  S
C761        C762   1.532       .  S
C761        C767   1.534       .  S
C762        C763   1.367       .  D
C763        C764   1.542       .  S
C764        C768   1.540       .  S
C764        C766   1.534       .  S
C764        H770   1.110       .  S
C765        H771   1.086       .  S
C767        H772   1.084       .  S
C767        C768   1.363       .  D
C768        C823   1.475       .  S
C773        C774   1.534       .  S
C773        C779   1.531       .  S
C773        C777   1.546       .  S
C773        C880   1.524       .  S
C774        H781   1.085       .  S
C774        C775   1.363       .  D
C775        C776   1.540       .  S
C776        C780   1.542       .  S
C776        C778   1.535       .  S
C776        H782   1.110       .  S
C777        C778   1.370       .  D
C779        H784   1.087       .  S
C779        C780   1.366       .  D
C780        C821   1.481       .  S
C785        C786   1.534       .  S
C785        C791   1.532       .  S
C785        C789   1.546       .  S
C785        C883   1.524       .  S
C786        H793   1.084       .  S
C786        C787   1.363       .  D
C787        C788   1.541       .  S
C788        C792   1.542       .  S
C788        C790   1.534       .  S
C788        H794   1.110       .  S
C789        C790   1.369       .  D
C791        H796   1.087       .  S
C791        C792   1.366       .  D
C792        C810   1.481       .  S
O797       Ni805   1.920       .  S
O797        C807   1.279       .  A
O798       Ni805   1.912       .  S
O798        C808   1.282       .  A
O799       Ni805   1.922       .  S
O799        C809   1.281       .  A
O800       Ni805   1.915       .  S
O800        C810   1.281       .  A
O801       Ni806   1.922       .  S
O801        C810   1.281       .  A
O802       Ni806   1.915       .  S
O802        C809   1.281       .  A
O803       Ni806   1.920       .  S
O803        C808   1.279       .  A
O804       Ni806   1.912       .  S
O804        C807   1.282       .  A
Ni805      Ni806   2.389       .  S
C809        C827   1.481       .  S
O811       Ni819   1.923   1_455  S
O811        C821   1.281       .  A
O812       Ni819   1.915       .  S
O812        C822   1.281       .  A
O813       Ni819   1.922   1_455  S
O813        C823   1.280       .  A
O814       Ni819   1.914       .  S
O814        C824   1.282       .  A
O815       Ni820   1.922       .  S
O815        C824   1.280   1_455  A
O816       Ni820   1.914       .  S
O816        C823   1.282       .  A
O817       Ni820   1.923       .  S
O817        C822   1.281   1_455  A
O818       Ni820   1.915       .  S
O818        C821   1.281       .  A
Ni819      Ni820   2.388   1_655  S
C822        C839   1.481       .  S
C825        C826   1.532       .  S
C825        C831   1.534       .  S
C825        C829   1.546       .  S
C825        C850   1.524       .  S
C826        H833   1.087       .  S
C826        C827   1.366       .  D
C827        C828   1.542       .  S
C828        C832   1.541       .  S
C828        C830   1.534       .  S
C828        H834   1.110       .  S
C829        H835   1.086       .  S
C829        C830   1.369       .  D
C830        C863   1.479       .  S
C831        H836   1.084       .  S
C831        C832   1.363       .  D
C837        C838   1.531       .  S
C837        C843   1.534       .  S
C837        C841   1.546       .  S
C837        C853   1.524       .  S
C838        H845   1.087       .  S
C838        C839   1.366       .  D
C839        C840   1.542       .  S
C840        C844   1.540       .  S
C840        C842   1.535       .  S
C840        H846   1.110   1_655  S
C841        H847   1.085       .  S
C841        C842   1.370       .  D
C842        C873   1.481       .  S
C843        H848   1.085       .  S
C843        C844   1.363       .  D
C849        C850   1.408       .  A
C849        C854   1.396       .  A
C849        H855   1.080       .  S
C850        C851   1.407       .  A
C851        C852   1.396       .  A
C851        H856   1.083       .  S
C852        C853   1.408       .  A
C852        H857   1.080       .  S
C853        C854   1.407       .  A
C854        H858   1.083       .  S
C859        H865   1.080       .  S
C860        C861   1.402       .  A
C861        C862   1.395       .  A
C861        H866   1.083       .  S
C862        C863   1.404       .  A
C862        H867   1.080       .  S
C863        C864   1.402       .  A
C864        H868   1.083       .  S
C869        H875   1.080   1_455  S
C870        C871   1.403       .  A
C871        C872   1.394       .  A
C871        H876   1.082       .  S
C872        C873   1.405   1_455  A
C872        H877   1.080       .  S
C873        C874   1.403       .  A
C874        H878   1.082       .  S
C879        C880   1.407       .  A
C879        C884   1.396       .  A
C879        H885   1.083       .  S
C880        C881   1.408       .  A
C881        C882   1.396       .  A
C881        H886   1.080       .  S
C882        C883   1.407       .  A
C882        H887   1.083       .  S
C883        C884   1.408       .  A
C884        H888   1.080       .  S
C889        C890   1.407       .  A
C890        C891   1.408       .  A
C891        C892   1.396       .  A
C891        H896   1.080       .  S
C892        C893   1.407       .  A
C892        H897   1.083       .  S
C894        H898   1.080       .  S
C899        C900   1.403       .  A
C899        C904   1.395   1_655  A
C899        H905   1.083       .  S
C900        C901   1.404   1_655  A
C901        C902   1.395       .  A
C901        H906   1.080       .  S
C902        C903   1.403       .  A
C902        H907   1.083       .  S
C903        C904   1.404       .  A
C909        C910   1.403       .  A
C909        C914   1.395       .  A
C909        H915   1.083       .  S
C911        H916   1.083       .  S
C912        C913   1.403       .  A
C913        C914   1.405       .  A
C914        H918   1.083       .  S
C919        C920   1.407       .  A
C919        C924   1.397       .  A
C919        H925   1.083       .  S
C921        H926   1.080       .  S
C922        C923   1.407       .  A
C923        C924   1.409       .  A
C924        H928   1.080       .  S
