geometry optimzed in LAMMPS
_audit_creation_date              2020-11-30 
_audit_creation_method            'lammps2cif' 
_symmetry_space_group_name_H-M    'P1' 
_symmetry_Int_Tables_number       1 
_symmetry_cell_setting            triclinic 
loop_ 
_symmetry_equiv_pos_as_xyz 
  x,y,z 
_cell_length_a                    36.82021271 
_cell_length_b                    37.126204162796704 
_cell_length_c                    39.204413343661216 
_cell_angle_alpha                 90.11640482945451 
_cell_angle_beta                  89.89027424996168 
_cell_angle_gamma                 89.95785707245746 
loop_ 
_atom_site_label 
_atom_site_type_symbol 
_atom_site_fract_x 
_atom_site_fract_y 
_atom_site_fract_z 
_atom_site_charge 
N1          N  0.87946160  0.91157275  0.55094742    -0.26600
N2          N  0.85953385  0.88842109  0.56843914    -0.34400
C3          C  0.86127616  0.89703490  0.60177494     0.01800
C4          C  0.88300338  0.92722531  0.60534026     0.07800
C5          C  0.89396204  0.93573218  0.57257043    -0.05300
H6          H  0.84532776  0.88428810  0.62156109     0.08400
H7          H  0.90942134  0.95909025  0.56476799     0.09600
Cu8        Cu  0.82540112  0.85077168  0.54556515     0.44200
Cu9        Cu  0.88190314  0.91298570  0.49818322     0.42000
Cu10       Cu  0.82180533  0.85363844  0.45259727     0.43900
N11         N  0.78905776  0.82090487  0.51625561    -0.34000
N12         N  0.78777740  0.82209440  0.48254528    -0.28200
C13         C  0.76005935  0.80149734  0.47162571    -0.04300
C14         C  0.74302482  0.78661761  0.49974184     0.07900
C15         C  0.76217535  0.79942800  0.52760962     0.01700
H16         H  0.75246041  0.79820755  0.44516226     0.09300
H17         H  0.75648856  0.79424048  0.55423176     0.08400
N18         N  0.85409094  0.89210144  0.42889482    -0.35400
N19         N  0.87587688  0.91405867  0.44568912    -0.27600
C20         C  0.88914730  0.93881891  0.42400753    -0.02800
C21         C  0.87512143  0.93227381  0.39172036     0.05800
C22         C  0.85309227  0.90218719  0.39600430     0.03900
H23         H  0.90541849  0.96150853  0.43201172     0.09000
H24         H  0.83589553  0.88960568  0.37710940     0.07800
N25         N  0.56611774  0.64604554  0.44610916    -0.26600
N26         N  0.58775434  0.66937801  0.43072794    -0.34400
C27         C  0.58444519  0.66546082  0.39683881     0.01800
C28         C  0.55948982  0.63842861  0.39024791     0.07800
C29         C  0.54867180  0.62648100  0.42219580    -0.05300
H30         H  0.60069121  0.67996143  0.37843451     0.08400
H31         H  0.53008630  0.60468395  0.42767809     0.09600
Cu32       Cu  0.62444509  0.70327371  0.45508299     0.44200
Cu33       Cu  0.56325216  0.64055331  0.49887958     0.42000
Cu34       Cu  0.63064672  0.69547197  0.54452035     0.43900
N35         N  0.66343920  0.73068104  0.48323958    -0.34000
N36         N  0.66575424  0.72773664  0.51672119    -0.28200
C37         C  0.69414272  0.74731948  0.52784478    -0.04300
C38         C  0.71060177  0.76326599  0.49991037     0.07900
C39         C  0.69038332  0.75213754  0.47204372     0.01700
H40         H  0.70246284  0.74933833  0.55422939     0.09300
H41         H  0.69512127  0.75877997  0.44555353     0.08400
N42         N  0.59439386  0.66037317  0.56758752    -0.35400
N43         N  0.56988709  0.64058561  0.55159986    -0.27600
C44         C  0.55266320  0.61979565  0.57465143    -0.02800
C45         C  0.56692886  0.62690708  0.60674894     0.05800
C46         C  0.59350298  0.65264234  0.60097772     0.03900
H47         H  0.53202489  0.60020572  0.56827825     0.09000
H48         H  0.61245596  0.66366971  0.61922554     0.07800
N49         N  0.89455765  0.04564938  0.25744978    -0.02800
C50         C  0.86965890  0.03462938  0.28089370    -0.00200
C51         C  0.83794223  0.05424730  0.27783346    -0.23100
C52         C  0.84324766  0.07806249  0.25162928    -0.23300
C53         C  0.87797259  0.07216251  0.23940077    -0.00300
H54         H  0.81346397  0.05133849  0.29290028     0.13500
H55         H  0.82338948  0.09675609  0.24162333     0.13500
N56         N  0.03923811  0.99119711  0.25848625    -0.02800
C57         C  0.05549143  0.96443286  0.24034822    -0.00200
C58         C  0.08997805  0.95789043  0.25274565    -0.23100
C59         C  0.09542689  0.98157894  0.27913407    -0.23300
C60         C  0.06397591  0.00162968  0.28224248    -0.00300
H61         H  0.10957414  0.93881229  0.24279402     0.13500
H62         H  0.11982296  0.98414027  0.29429834     0.13500
N63         N  0.89271988  0.02695552  0.75117860    -0.02800
C64         C  0.87068188  0.01155565  0.72720563    -0.00200
C65         C  0.83451234  0.01697572  0.73496959    -0.23100
C66         C  0.83349502  0.03605192  0.76472946    -0.23300
C67         C  0.86905966  0.04189734  0.77410143    -0.00300
H68         H  0.81130571  0.00787772  0.72040261     0.13500
H69         H  0.80937962  0.04508487  0.77807425     0.13500
N70         N  0.04963155  0.02817963  0.76029890    -0.02800
C71         C  0.07286013  0.04534616  0.73850759    -0.00200
C72         C  0.10836628  0.04234497  0.74917722    -0.23100
C73         C  0.10774053  0.02259407  0.77848428    -0.23300
C74         C  0.07185654  0.01388622  0.78466999    -0.00300
H75         H  0.13225396  0.05275916  0.73644718     0.13500
H76         H  0.13112410  0.01446230  0.79329688     0.13500
N77         N  0.37299642  0.62932903  0.04804198    -0.26600
N78         N  0.35084302  0.65096998  0.06494543    -0.34400
C79         C  0.35174292  0.64226859  0.09818061     0.01800
C80         C  0.37526034  0.61331095  0.10273411     0.07800
C81         C  0.38823752  0.60605473  0.07008621    -0.05300
H82         H  0.33472225  0.65496137  0.11721108     0.08400
H83         H  0.40528389  0.58386052  0.06219638     0.09600
Cu84       Cu  0.31521350  0.68721034  0.04207515     0.44200
Cu85       Cu  0.37788995  0.62919808  0.99524073     0.42000
Cu86       Cu  0.31551600  0.68985974  0.95114079     0.43900
N87         N  0.27828509  0.71771184  0.01412766    -0.34000
N88         N  0.27870898  0.71901298  0.98044779    -0.28200
C89         C  0.25117791  0.74000948  0.96972064    -0.04300
C90         C  0.23236531  0.75240346  0.99803635     0.07900
C91         C  0.25031961  0.73770260  0.02575941     0.01700
H92         H  0.24490730  0.74524676  0.94324206     0.09300
H93         H  0.24336040  0.74095019  0.05240933     0.08400
N94         N  0.35083335  0.65444463  0.92681580    -0.35400
N95         N  0.37343003  0.63237695  0.94252091    -0.27600
C96         C  0.38932002  0.61079187  0.91921258    -0.02800
C97         C  0.37581143  0.61936101  0.88712710     0.05800
C98         C  0.35169450  0.64743379  0.89323415     0.03900
H99         H  0.40827463  0.58968030  0.92567427     0.09000
H100        H  0.33400713  0.66031234  0.87495283     0.07800
N101        N  0.05287058  0.88737340  0.05547866    -0.26600
N102        N  0.07432705  0.86385178  0.07071074    -0.34400
C103        C  0.07081685  0.86757473  0.10463723     0.01800
C104        C  0.04599566  0.89483554  0.11133804     0.07800
C105        C  0.03532751  0.90686546  0.07940613    -0.05300
H106        H  0.08736191  0.85335011  0.12297159     0.08400
H107        H  0.01738760  0.92919001  0.07391138     0.09600
Cu108      Cu  0.11195637  0.83160551  0.04542053     0.44200
Cu109      Cu  0.05164205  0.89422146  0.00297912     0.42000
Cu110      Cu  0.11813146  0.84212551  0.95443080     0.43900
N111        N  0.15167426  0.80665183  0.01589157    -0.34000
N112        N  0.15404138  0.81057978  0.98245142    -0.28200
C113        C  0.18295962  0.79188908  0.97095191    -0.04300
C114        C  0.19964097  0.77546346  0.99849402     0.07900
C115        C  0.17906117  0.78544731  0.02657188     0.01700
H116        H  0.19136888  0.79062073  0.94452253     0.09300
H117        H  0.18370234  0.77800009  0.05286888     0.08400
N118        N  0.08113275  0.87769767  0.93267444    -0.35400
N119        N  0.05760196  0.89714796  0.95041077    -0.27600
C120        C  0.04192381  0.92129373  0.92956096    -0.02800
C121        C  0.05583582  0.91654260  0.89706124     0.05800
C122        C  0.08064222  0.88873997  0.90001107     0.03900
H123        H  0.02397225  0.94263317  0.93797745     0.09000
H124        H  0.09956154  0.87972847  0.88063768     0.07800
N125        N  0.54323144  0.52291658  0.74753342    -0.02800
C126        C  0.56693541  0.54233071  0.72844706    -0.00200
C127        C  0.60222183  0.53591857  0.73871493    -0.23100
C128        C  0.60035285  0.51152916  0.76490487    -0.23300
C129        C  0.56401297  0.50402025  0.76971771    -0.00300
H130        H  0.62668117  0.54752321  0.72805401     0.13500
H131        H  0.62294423  0.50101901  0.77944228     0.13500
N132        N  0.38827106  0.51992502  0.74196893    -0.02800
C133        C  0.36565172  0.53973545  0.76192797    -0.00200
C134        C  0.32993168  0.53457727  0.75239710    -0.23100
C135        C  0.33044493  0.51069267  0.72560614    -0.23300
C136        C  0.36645647  0.50227623  0.71966069    -0.00300
H137        H  0.30608950  0.54645407  0.76406406     0.13500
H138        H  0.30712779  0.50075776  0.71171036     0.13500
N139        N  0.06915793  0.11916862  0.44867654    -0.26600
N140        N  0.08618977  0.14421510  0.43091254    -0.34400
C141        C  0.08437134  0.13576054  0.39759534     0.01800
C142        C  0.06587319  0.10332933  0.39398514     0.07800
C143        C  0.05627872  0.09397577  0.42709522    -0.05300
H144        H  0.09696392  0.15162132  0.37777275     0.08400
H145        H  0.04293877  0.06947258  0.43516923     0.09600
Cu146      Cu  0.11644513  0.18565343  0.45286725     0.44200
Cu147      Cu  0.06752391  0.11910902  0.50167158     0.42000
Cu148      Cu  0.11562958  0.19287206  0.54453989     0.43900
N149        N  0.14999295  0.22076573  0.47993650    -0.34000
N150        N  0.14948361  0.22345576  0.51357177    -0.28200
C151        C  0.17547590  0.24667907  0.52348966    -0.04300
C152        C  0.19334088  0.25921088  0.49475494     0.07900
C153        C  0.17641901  0.24223231  0.46757699     0.01700
H154        H  0.18154664  0.25318221  0.54977723     0.09300
H155        H  0.18336232  0.24459553  0.44085250     0.08400
N156        N  0.08498280  0.15409773  0.56963312    -0.35400
N157        N  0.06877656  0.12677894  0.55419676    -0.27600
C158        C  0.05566325  0.10417518  0.57795751    -0.02800
C159        C  0.06363529  0.11800206  0.60990287     0.05800
C160        C  0.08221826  0.14971157  0.60360025     0.03900
H161        H  0.04279934  0.07865132  0.57236332     0.09000
H162        H  0.09540563  0.16678123  0.62221775     0.07800
N163        N  0.37269979  0.39715484  0.44014068    -0.26600
N164        N  0.34989109  0.37574429  0.42378302    -0.34400
C165        C  0.35423297  0.38054225  0.39005262     0.01800
C166        C  0.38077423  0.40644671  0.38470495     0.07800
C167        C  0.39190849  0.41630224  0.41719035    -0.05300
H168        H  0.33774656  0.36756100  0.37080963     0.08400
H169        H  0.41191835  0.43639879  0.42386352     0.09600
Cu170      Cu  0.31069643  0.34366353  0.44733986     0.44200
Cu171      Cu  0.37497224  0.40130906  0.49293902     0.42000
Cu172      Cu  0.30663342  0.34956333  0.53822151     0.43900
N173        N  0.27146266  0.31693266  0.47622329    -0.34000
N174        N  0.26996537  0.31951798  0.50982244    -0.28200
C175        C  0.24193410  0.29974951  0.52139675    -0.04300
C176        C  0.22487840  0.28382408  0.49378301     0.07900
C177        C  0.24433221  0.29533396  0.46550117     0.01700
H178        H  0.23468477  0.29701205  0.54801788     0.09300
H179        H  0.23926682  0.28841757  0.43911843     0.08400
N180        N  0.34530941  0.38158834  0.56195769    -0.35400
N181        N  0.37003938  0.40083224  0.54571902    -0.27600
C182        C  0.38825566  0.42103136  0.56857027    -0.02800
C183        C  0.37446412  0.41404876  0.60088061     0.05800
C184        C  0.34720903  0.38889369  0.59544442     0.03900
H185        H  0.40884621  0.44055600  0.56188479     0.09000
H186        H  0.32811086  0.37861738  0.61399499     0.07800
N187        N  0.87359812  0.14994330  0.05547783    -0.26600
N188        N  0.85261636  0.17320748  0.07178449    -0.34400
C189        C  0.85719404  0.16900522  0.10550532     0.01800
C190        C  0.88231796  0.14177404  0.11093259     0.07800
C191        C  0.89193262  0.13015779  0.07850356    -0.05300
H192        H  0.84138342  0.18310738  0.12457906     0.08400
H193        H  0.90992303  0.10810465  0.07208512     0.09600
Cu194      Cu  0.81513195  0.20672339  0.04825545     0.44200
Cu195      Cu  0.87392790  0.14439895  0.00281168     0.42000
Cu196      Cu  0.81107528  0.20139587  0.95633586     0.43900
N197        N  0.77711834  0.23434008  0.01927900    -0.34000
N198        N  0.77578055  0.23250901  0.98561671    -0.28200
C199        C  0.74767098  0.25246802  0.97455201    -0.04300
C200        C  0.73042680  0.26749047  0.00258725     0.07900
C201        C  0.74983489  0.25544305  0.03053018     0.01700
H202        H  0.74006127  0.25536129  0.94806101     0.09300
H203        H  0.74436110  0.26125782  0.05709871     0.08400
N204        N  0.84599040  0.16471595  0.93307291    -0.35400
N205        N  0.86829703  0.14348668  0.95018057    -0.27600
C206        C  0.88405119  0.12025442  0.92834977    -0.02800
C207        C  0.87118329  0.12720128  0.89587609     0.05800
C208        C  0.84725394  0.15570833  0.89980977     0.03900
H209        H  0.90237908  0.09890826  0.93582692     0.09000
H210        H  0.83011545  0.16733357  0.88032538     0.07800
N211        N  0.56245280  0.41815319  0.05141295    -0.26600
N212        N  0.58253251  0.39536412  0.06908923    -0.34400
C213        C  0.58191456  0.40524735  0.10205881     0.01800
C214        C  0.56070959  0.43600748  0.10543846     0.07800
C215        C  0.54877265  0.44325937  0.07263833    -0.05300
H216        H  0.59764910  0.39215565  0.12172737     0.08400
H217        H  0.53365427  0.46657159  0.06421697     0.09600
Cu218      Cu  0.61555781  0.35600138  0.04737665     0.44200
Cu219      Cu  0.55788844  0.41687540  0.99882575     0.42000
Cu220      Cu  0.61630157  0.35388296  0.95524797     0.43900
N221        N  0.65195096  0.32525067  0.01893605    -0.34000
N222        N  0.65222155  0.32479176  0.98520951    -0.28200
C223        C  0.67986115  0.30401086  0.97433900    -0.04300
C224        C  0.69796682  0.29077676  0.00253701     0.07900
C225        C  0.67953623  0.30476051  0.03041863     0.01700
H226        H  0.68660031  0.29940304  0.94781757     0.09300
H227        H  0.68600440  0.30082448  0.05705879     0.08400
N228        N  0.58019381  0.38771782  0.93036493    -0.35400
N229        N  0.55881919  0.41081743  0.94636259    -0.27600
C230        C  0.54166830  0.43130896  0.92320480    -0.02800
C231        C  0.55280451  0.42077397  0.89086213     0.05800
C232        C  0.57727147  0.39295245  0.89657244     0.03900
H233        H  0.52403315  0.45362253  0.92965121     0.09000
H234        H  0.59413832  0.37950903  0.87786804     0.07800
N235        N  0.39641676  0.49938381  0.23720974    -0.02800
C236        C  0.37918386  0.47260063  0.25435705    -0.00200
C237        C  0.34434841  0.46814757  0.24197755    -0.23100
C238        C  0.33981503  0.49300549  0.21651802    -0.23300
C239        C  0.37199599  0.51197798  0.21413933    -0.00300
H240        H  0.32380525  0.44993828  0.25156848     0.13500
H241        H  0.31548596  0.49705250  0.20156414     0.13500
N242        N  0.54237990  0.54958568  0.23972151    -0.02800
C243        C  0.56600306  0.54016997  0.21455828    -0.00200
C244        C  0.59709254  0.56088774  0.21629829    -0.23100
C245        C  0.59273405  0.58369779  0.24352394    -0.23300
C246        C  0.55920774  0.57606762  0.25766134    -0.00300
H247        H  0.62067481  0.55914012  0.19985512     0.13500
H248        H  0.61257678  0.60274378  0.25296387     0.13500
C249        C  0.43324896  0.51158598  0.24191726    -0.04800
C250        C  0.44058896  0.54854986  0.24454348    -0.32200
C251        C  0.47635814  0.56122442  0.24498485     0.37100
C252        C  0.50562701  0.53677479  0.24380298    -0.05100
C253        C  0.49826022  0.49968614  0.24288964    -0.32100
C254        C  0.46242566  0.48702479  0.24155450     0.37000
H255        H  0.41841434  0.56771877  0.24499291     0.17300
O256        O  0.48237168  0.59765007  0.24472276    -0.59600
H257        H  0.52044178  0.48054992  0.24182035     0.17400
O258        O  0.45621258  0.45090174  0.23706618    -0.59700
H259        H  0.46351319  0.43938320  0.25880545     0.44300
H260        H  0.48625427  0.60389348  0.22040253     0.44300
C261        C  0.56137260  0.51089932  0.18933117    -0.04800
C262        C  0.53186709  0.51070494  0.16676255    -0.32200
C263        C  0.53017003  0.48534347  0.14019854     0.37100
C264        C  0.55861259  0.46013862  0.13566420    -0.05100
C265        C  0.58708711  0.45954655  0.15943968    -0.32100
C266        C  0.58852488  0.48447762  0.18601852     0.37000
H267        H  0.51067896  0.53083433  0.16913016     0.17300
O268        O  0.50093799  0.48588918  0.11860159    -0.59600
H269        H  0.60931759  0.44066656  0.15681692     0.17400
O270        O  0.61735204  0.48350748  0.20811782    -0.59700
H271        H  0.60908257  0.46838027  0.22744715     0.44300
H272        H  0.48262293  0.46998823  0.12940118     0.44300
C273        C  0.39037154  0.42276444  0.35127521    -0.04800
C274        C  0.38744072  0.40152925  0.32172719    -0.32200
C275        C  0.38777835  0.41729223  0.28936050     0.37100
C276        C  0.39139916  0.45481584  0.28605497    -0.05100
C277        C  0.39838346  0.47564949  0.31517675    -0.32100
C278        C  0.39801469  0.45988377  0.34772105     0.37000
H279        H  0.38283846  0.37279417  0.32373807     0.17300
O280        O  0.38301466  0.39604455  0.26102591    -0.59600
H281        H  0.40093007  0.50463042  0.31300277     0.17400
O282        O  0.40118133  0.48172015  0.37578453    -0.59700
H283        H  0.42766034  0.48533045  0.37878981     0.44300
H284        H  0.35689448  0.38957648  0.26092974     0.44300
C285        C  0.38111134  0.43434589  0.63300987    -0.04800
C286        C  0.39323377  0.47030856  0.63184066    -0.32200
C287        C  0.39181086  0.49221298  0.66103585     0.37100
C288        C  0.37790089  0.47826920  0.69166651    -0.05100
C289        C  0.36872833  0.44175764  0.69357103    -0.32100
C290        C  0.37141358  0.41955280  0.66489815     0.37000
H291        H  0.40155612  0.48225801  0.60791467     0.17300
O292        O  0.40179815  0.52772104  0.65883295    -0.59600
H293        H  0.35845486  0.43067695  0.71725335     0.17400
O294        O  0.36317522  0.38371994  0.66819512    -0.59700
H295        H  0.38697252  0.37122034  0.66898600     0.44300
H296        H  0.37946877  0.54075496  0.65197393     0.44300
C297        C  0.54718019  0.44053657  0.85838215    -0.04800
C298        C  0.53991480  0.47776539  0.85922655    -0.32200
C299        C  0.54199697  0.49847293  0.82950577     0.37100
C300        C  0.55102249  0.48199603  0.79838068    -0.05100
C301        C  0.55528720  0.44456348  0.79686364    -0.32100
C302        C  0.55283925  0.42371860  0.82646761     0.37000
H303        H  0.53521777  0.49148371  0.88321133     0.17300
O304        O  0.53782556  0.53514246  0.83153676    -0.59600
H305        H  0.56232504  0.43170237  0.77290498     0.17400
O306        O  0.55766131  0.38718877  0.82401582    -0.59700
H307        H  0.53285148  0.37711266  0.82173288     0.44300
H308        H  0.56232944  0.54464508  0.83690563     0.44300
C309        C  0.50412869  0.52239526  0.74529064    -0.04800
C310        C  0.48568073  0.48934521  0.74458604    -0.32200
C311        C  0.44763515  0.48805869  0.74353292     0.37100
C312        C  0.42743768  0.52026599  0.74269198    -0.05100
C313        C  0.44591713  0.55331795  0.74330552    -0.32100
C314        C  0.48383582  0.55456845  0.74507160     0.37000
H315        H  0.50088297  0.46438795  0.74505269     0.17300
O316        O  0.43036975  0.45539827  0.74551604    -0.59600
H317        H  0.43076093  0.57830794  0.74272791     0.17400
O318        O  0.50066234  0.58737556  0.74753059    -0.59700
H319        H  0.50580974  0.59064625  0.77216234     0.44300
H320        H  0.43866063  0.44147295  0.72531905     0.44300
C321        C  0.37898014  0.59063924  0.13404079    -0.04800
C322        C  0.35263113  0.59361950  0.15993684    -0.32200
C323        C  0.35160987  0.56936249  0.18711910     0.37100
C324        C  0.37744668  0.54159190  0.18934147    -0.05100
C325        C  0.40564219  0.54010968  0.16530007    -0.32100
C326        C  0.40662050  0.56436838  0.13776908     0.37000
H327        H  0.33142166  0.61369973  0.15861509     0.17300
O328        O  0.32498989  0.57286202  0.21147507    -0.59600
H329        H  0.42604554  0.51913895  0.16696984     0.17400
O330        O  0.43485334  0.56229898  0.11497628    -0.59700
H331        H  0.43128867  0.53934064  0.10243725     0.44300
H332        H  0.30233974  0.56435321  0.20045341     0.44300
C333        C  0.37609495  0.56164974  0.79177450    -0.04800
C334        C  0.38998845  0.54487358  0.82091825    -0.32200
C335        C  0.39183078  0.56352763  0.85204874     0.37100
C336        C  0.38047370  0.59995178  0.85402421    -0.05100
C337        C  0.36960243  0.61725202  0.82379706    -0.32100
C338        C  0.36686699  0.59829310  0.79310286     0.37000
H339        H  0.39695087  0.51651425  0.82014081     0.17300
O340        O  0.40261719  0.54506682  0.88050815    -0.59600
H341        H  0.36164261  0.64531523  0.82406192     0.17400
O342        O  0.35329892  0.61535301  0.76486216    -0.59700
H343        H  0.37487309  0.62495288  0.75274776     0.44300
H344        H  0.38021415  0.53368364  0.88953584     0.44300
C345        C  0.06411490  0.06263200  0.70578932    -0.04800
C346        C  0.05448281  0.09910185  0.70478686    -0.32200
C347        C  0.05322853  0.11746495  0.67354402     0.37100
C348        C  0.06088740  0.09896247  0.64289340    -0.05100
C349        C  0.06883903  0.06201322  0.64403417    -0.32100
C350        C  0.07105156  0.04402164  0.67519498     0.37000
H351        H  0.04956411  0.11368676  0.72831410     0.17300
O352        O  0.04440858  0.15336566  0.67315834    -0.59600
H353        H  0.07527367  0.04740242  0.62084931     0.17400
O354        O  0.08159545  0.00856955  0.67573550    -0.59700
H355        H  0.05905129  0.99457408  0.67183882     0.44300
H356        H  0.06623072  0.16604498  0.68182881     0.44300
C357        C  0.06189771  0.99052474  0.81365749    -0.04800
C358        C  0.07398459  0.00051014  0.84625165    -0.32200
C359        C  0.07018715  0.97723802  0.87390124     0.37100
C360        C  0.05492615  0.94292703  0.86908892    -0.05100
C361        C  0.04212761  0.93300095  0.83667957    -0.32100
C362        C  0.04509354  0.95684947  0.80901495     0.37000
H363        H  0.08734258  0.02621143  0.85005407     0.17300
O364        O  0.08409045  0.98714340  0.90497109    -0.59600
H365        H  0.03067061  0.90646066  0.83268392     0.17400
O366        O  0.03408045  0.94603820  0.77720694    -0.59700
H367        H  0.00726201  0.94846261  0.77740072     0.44300
H368        H  0.06456013  0.00132458  0.91613557     0.44300
C369        C  0.87762877  0.06305593  0.80487158    -0.04800
C370        C  0.87384562  0.04653721  0.83677992    -0.32200
C371        C  0.87357970  0.06703641  0.86670299     0.37100
C372        C  0.87611808  0.10487322  0.86493753    -0.05100
C373        C  0.88037102  0.12139142  0.83295414    -0.32100
C374        C  0.88149491  0.10065517  0.80303049     0.37000
H375        H  0.86966327  0.01769015  0.83833698     0.17300
O376        O  0.86839853  0.04995403  0.89731222    -0.59600
H377        H  0.88197306  0.15046420  0.83115158     0.17400
O378        O  0.88358235  0.11752807  0.77200314    -0.59700
H379        H  0.90933172  0.11516077  0.76489081     0.44300
H380        H  0.84171415  0.04972418  0.90085605     0.44300
C381        C  0.93234721  0.02676915  0.75299834    -0.04800
C382        C  0.94990348  0.02553312  0.78483074    -0.32200
C383        C  0.98783309  0.02810729  0.78776692     0.37100
C384        C  0.01002576  0.02689445  0.75832719    -0.05100
C385        C  0.99245069  0.02625974  0.72649383    -0.32100
C386        C  0.95452774  0.02879031  0.72362415     0.37000
H387        H  0.93440412  0.02340286  0.80802865     0.17300
O388        O  0.00244447  0.03500266  0.81927750    -0.59600
H389        H  0.00781920  0.02476953  0.70320336     0.17400
O390        O  0.93998080  0.03675497  0.69236519    -0.59700
H391        H  0.94882382  0.01782651  0.67646421     0.44300
H392        H  0.99400105  0.01531388  0.83443051     0.44300
C393        C  0.05990172  0.03069213  0.30788056    -0.04800
C394        C  0.08612304  0.05795773  0.30870948    -0.32200
C395        C  0.08771669  0.08244219  0.33579298     0.37500
C396        C  0.06235095  0.08034294  0.36285350    -0.05100
C397        C  0.03516155  0.05365860  0.36126370    -0.32100
C398        C  0.03394323  0.02887428  0.33413275     0.37000
H399        H  0.10664055  0.05927121  0.28888465     0.17300
O400        O  0.11566966  0.10677529  0.33630469    -0.59600
H401        H  0.01542989  0.05120624  0.38164063     0.17400
O402        O  0.00930195  0.00123796  0.33499414    -0.59700
H403        H  0.98634652  0.01181256  0.32650711     0.44300
H404        H  0.13587072  0.09431442  0.34813932     0.44300
C405        C  0.03897204  0.91186703  0.14504158    -0.04800
C406        C  0.03351502  0.94932373  0.14745177    -0.32200
C407        C  0.03516440  0.96690928  0.17915945     0.37100
C408        C  0.04194150  0.94689956  0.20893944    -0.05100
C409        C  0.04369941  0.90925124  0.20684064    -0.32100
C410        C  0.04185411  0.89168975  0.17534627     0.37000
H411        H  0.03082043  0.96542665  0.12459927     0.17300
O412        O  0.03324951  0.00378683  0.18033081    -0.59600
H413        H  0.04865126  0.89351299  0.22961986     0.17400
O414        O  0.04479491  0.85488335  0.17443360    -0.59700
H415        H  0.01944524  0.84590652  0.17497148     0.44300
H416        H  0.05860308  0.01222966  0.17735261     0.44300
C417        C  0.89105168  0.08956505  0.20784964    -0.04800
C418        C  0.88988475  0.12723610  0.20609754    -0.32200
C419        C  0.88999271  0.14487073  0.17459982     0.37100
C420        C  0.89093738  0.12466582  0.14413398    -0.05100
C421        C  0.89596204  0.08713831  0.14606019    -0.32100
C422        C  0.89608313  0.06954484  0.17772346     0.37000
H423        H  0.88650893  0.14294706  0.22922248     0.17300
O424        O  0.88854271  0.18181126  0.17380229    -0.59600
H425        H  0.89700389  0.07104415  0.12301181     0.17400
O426        O  0.89690698  0.03263885  0.17865513    -0.59700
H427        H  0.92300680  0.02618586  0.17717902     0.44300
H428        H  0.86431310  0.18839199  0.18303966     0.44300
C429        C  0.93114800  0.03220487  0.25344471    -0.04800
C430        C  0.93751387  0.99491496  0.25315219    -0.32200
C431        C  0.97288411  0.98119185  0.25428428     0.37100
C432        C  0.00279982  0.00480107  0.25444607    -0.05100
C433        C  0.99654903  0.04205138  0.25311285    -0.32100
C434        C  0.96108050  0.05585193  0.25279507     0.37000
H435        H  0.91483268  0.97637319  0.25343399     0.17300
O436        O  0.97784469  0.94472879  0.25713404    -0.59600
H437        H  0.01930165  0.06051138  0.25331943     0.17400
O438        O  0.95594630  0.09239519  0.25454147    -0.59700
H439        H  0.96435166  0.10188354  0.23224869     0.44300
H440        H  0.98060657  0.94022616  0.28192434     0.44300
C441        C  0.55976830  0.60755072  0.63927014    -0.04800
C442        C  0.54602165  0.57214839  0.63871635    -0.32200
C443        C  0.54520252  0.55127070  0.66849750     0.37100
C444        C  0.55827351  0.56572033  0.69924791    -0.05100
C445        C  0.56935555  0.60174230  0.70041425    -0.32100
C446        C  0.56940095  0.62287534  0.67100655     0.37000
H447        H  0.53792351  0.55977066  0.61490340     0.17300
O448        O  0.53392474  0.51610966  0.66679545    -0.59600
H449        H  0.57915530  0.61319502  0.72412596     0.17400
O450        O  0.57996766  0.65816743  0.67359361    -0.59700
H451        H  0.55708996  0.67200769  0.67624313     0.44300
H452        H  0.55624285  0.50188463  0.66232831     0.44300
C453        C  0.55067971  0.62295895  0.35630437    -0.04800
C454        C  0.54554848  0.58560679  0.35248175    -0.32200
C455        C  0.54412038  0.56985864  0.31988659     0.37100
C456        C  0.54781520  0.59160256  0.29072617    -0.05100
C457        C  0.54936751  0.62908001  0.29456349    -0.32100
C458        C  0.55082737  0.64483468  0.32695560     0.37000
H459        H  0.54523127  0.56828184  0.37467414     0.17300
O460        O  0.54321472  0.53306112  0.31693180    -0.59600
H461        H  0.55184969  0.64611251  0.27225672     0.17400
O462        O  0.55285299  0.68164262  0.32967811    -0.59700
H463        H  0.57703667  0.68830543  0.32043264     0.44300
H464        H  0.51719084  0.52653899  0.31900708     0.44300
C465        C  0.88544537  0.95034220  0.63592511    -0.04800
C466        C  0.89587564  0.93555436  0.66740117    -0.32200
C467        C  0.89422941  0.95626184  0.69737875     0.37100
C468        C  0.88108739  0.99176510  0.69606385    -0.05100
C469        C  0.87144323  0.00670217  0.66451274    -0.32100
C470        C  0.87400916  0.98650002  0.63454482     0.37000
H471        H  0.90443289  0.90767271  0.66881083     0.17300
O472        O  0.90281235  0.94078653  0.72804426    -0.59600
H473        H  0.86072394  0.03387379  0.66334052     0.17400
O474        O  0.86308180  0.00167039  0.60437618    -0.59700
H475        H  0.83663427  0.99682833  0.60295100     0.44300
H476        H  0.92895153  0.94605026  0.73144913     0.44300
C477        C  0.87705633  0.95611939  0.36118737    -0.04800
C478        C  0.84929553  0.95429142  0.33666179    -0.32200
C479        C  0.84792089  0.97860152  0.30958249     0.37100
C480        C  0.87428869  0.00578716  0.30656278    -0.05100
C481        C  0.90297569  0.00694247  0.32995941    -0.32100
C482        C  0.90482878  0.98209594  0.35684629     0.37000
H483        H  0.82762974  0.93478838  0.33888497     0.17300
O484        O  0.81995066  0.97617231  0.28663024    -0.59600
H485        H  0.92331170  0.02788859  0.32799900     0.17400
O486        O  0.93359319  0.98399488  0.37890387    -0.59700
H487        H  0.95113468  0.96569881  0.37056836     0.44300
H488        H  0.82993677  0.96222205  0.26715272     0.44300
loop_ 
_geom_bond_atom_site_label_1 
_geom_bond_atom_site_label_2 
_geom_bond_distance 
_geom_bond_site_symmetry_2 
_ccdc_geom_bond_type 
N1            N2   1.322       .  A
N1            C5   1.344       .  A
N1           Cu9   2.071       .  S
N2            C3   1.346       .  A
N2           Cu8   2.083       .  S
C3            C4   1.385       .  A
C3            H6   1.082       .  S
C4            C5   1.383       .  A
C4          C465   1.476       .  S
C5            H7   1.082       .  S
Cu8          N11   2.084       .  S
Cu9          N19   2.071       .  S
Cu10         N12   2.079       .  S
Cu10         N18   2.078       .  S
N11          N12   1.323       .  A
N11          C15   1.347       .  A
N12          C13   1.346       .  A
C13          C14   1.383       .  A
C13          H16   1.082       .  S
C14          C15   1.385       .  A
C14          C38   1.476       .  S
C15          H17   1.082       .  S
N18          N19   1.320       .  A
N18          C22   1.344       .  A
N19          C20   1.345       .  A
C20          C21   1.389       .  A
C20          H23   1.080       .  S
C21          C22   1.391       .  A
C21         C477   1.492       .  S
C22          H24   1.081       .  S
N25          N26   1.323       .  A
N25          C29   1.349       .  A
N25         Cu33   2.082       .  S
N26          C27   1.342       .  A
N26         Cu32   2.079       .  S
C27          C28   1.385       .  A
C27          H30   1.081       .  S
C28          C29   1.387       .  A
C28         C453   1.485       .  S
C29          H31   1.082       .  S
Cu32         N35   2.078       .  S
Cu33         N43   2.082       .  S
Cu34         N36   2.073       .  S
Cu34         N42   2.074       .  S
N35          N36   1.320       .  A
N35          C39   1.346       .  A
N36          C37   1.346       .  A
C37          C38   1.385       .  A
C37          H40   1.082       .  S
C38          C39   1.386       .  A
C39          H41   1.082       .  S
N42          N43   1.322       .  A
N42          C46   1.341       .  A
N43          C44   1.348       .  A
C44          C45   1.389       .  A
C44          H47   1.082       .  S
C45          C46   1.387       .  A
C45         C441   1.488       .  S
C46          H48   1.081       .  S
N49          C53   1.359       .  A
N49          C50   1.361       .  A
N49         C429   1.445       .  S
C50          C51   1.381       .  A
C50         C480   1.481       .  S
C51          C52   1.371       .  A
C51          H54   1.082       .  S
C52          C53   1.382       .  A
C52          H55   1.082       .  S
C53         C417   1.477       .  S
N56          C60   1.360   1_565  A
N56          C57   1.359       .  A
N56         C432   1.442   1_565  S
C57          C58   1.382       .  A
C57         C408   1.479       .  S
C58          C59   1.372       .  A
C58          H61   1.082       .  S
C59          C60   1.381   1_565  A
C59          H62   1.082       .  S
C60         C393   1.480       .  S
N63          C67   1.367       .  A
N63          C64   1.368       .  A
N63         C381   1.461       .  S
C64          C65   1.380       .  A
C64         C468   1.474   1_545  S
C65          C66   1.364       .  A
C65          H68   1.083       .  S
C66          C67   1.378       .  A
C66          H69   1.082       .  S
C67         C369   1.473       .  S
N70          C74   1.367       .  A
N70          C71   1.367       .  A
N70         C384   1.461       .  S
C71          C72   1.378       .  A
C71         C345   1.472       .  S
C72          C73   1.364       .  A
C72          H75   1.082       .  S
C73          C74   1.382       .  A
C73          H76   1.083       .  S
C74         C357   1.477   1_545  S
N77          N78   1.321       .  A
N77          C81   1.346       .  A
N77         Cu85   2.078   1_554  S
N78          C79   1.344       .  A
N78         Cu84   2.084       .  S
C79          C80   1.392       .  A
C79          H82   1.081       .  S
C80          C81   1.391       .  A
C80         C321   1.496       .  S
C81          H83   1.080       .  S
Cu84         N87   2.083       .  S
Cu85         N95   2.077       .  S
Cu86         N88   2.077       .  S
Cu86         N94   2.078       .  S
N87          N88   1.321   1_554  A
N87          C91   1.347       .  A
N88          C89   1.347       .  A
C89          C90   1.385       .  A
C89          H92   1.082       .  S
C90          C91   1.386   1_556  A
C90         C114   1.478       .  S
C91          H93   1.082       .  S
N94          N95   1.321       .  A
N94          C98   1.342       .  A
N95          C96   1.347       .  A
C96          C97   1.391       .  A
C96          H99   1.080       .  S
C97          C98   1.389       .  A
C97         C336   1.493       .  S
C98         H100   1.081       .  S
N101        N102   1.321       .  A
N101        C105   1.347       .  A
N101       Cu109   2.075       .  S
N102        C103   1.343       .  A
N102       Cu108   2.079       .  S
C103        C104   1.388       .  A
C103        H106   1.081       .  S
C104        C105   1.387       .  A
C104        C405   1.486       .  S
C105        H107   1.082       .  S
Cu108       N111   2.079       .  S
Cu109       N119   2.075   1_554  S
Cu110       N112   2.082       .  S
Cu110       N118   2.082       .  S
N111        N112   1.322   1_554  A
N111        C115   1.347       .  A
N112        C113   1.347       .  A
C113        C114   1.386       .  A
C113        H116   1.082       .  S
C114        C115   1.385   1_556  A
C115        H117   1.082       .  S
N118        N119   1.323       .  A
N118        C122   1.346       .  A
N119        C120   1.345       .  A
C120        C121   1.383       .  A
C120        H123   1.082       .  S
C121        C122   1.383       .  A
C121        C360   1.472       .  S
C122        H124   1.082       .  S
N125        C129   1.356       .  A
N125        C126   1.357       .  A
N125        C309   1.443       .  S
C126        C127   1.382       .  A
C126        C444   1.474       .  S
C127        C128   1.372       .  A
C127        H130   1.082       .  S
C128        C129   1.380       .  A
C128        H131   1.082       .  S
C129        C300   1.470       .  S
N132        C136   1.357       .  A
N132        C133   1.357       .  A
N132        C312   1.443       .  S
C133        C134   1.381       .  A
C133        C333   1.476       .  S
C134        C135   1.373       .  A
C134        H137   1.082       .  S
C135        C136   1.381       .  A
C135        H138   1.082       .  S
C136        C288   1.473       .  S
N139        N140   1.321       .  A
N139        C143   1.347       .  A
N139       Cu147   2.078       .  S
N140        C141   1.345       .  A
N140       Cu146   2.086       .  S
C141        C142   1.391       .  A
C141        H144   1.080       .  S
C142        C143   1.389       .  A
C142        C396   1.494       .  S
C143        H145   1.082       .  S
Cu146       N149   2.086       .  S
Cu147       N157   2.079       .  S
Cu148       N150   2.078       .  S
Cu148       N156   2.078       .  S
N149        N150   1.322       .  A
N149        C153   1.348       .  A
N150        C151   1.346       .  A
C151        C152   1.385       .  A
C151        H154   1.082       .  S
C152        C153   1.386       .  A
C152        C176   1.479       .  S
C153        H155   1.082       .  S
N156        N157   1.323       .  A
N156        C160   1.346       .  A
N157        C158   1.344       .  A
C158        C159   1.385       .  A
C158        H161   1.082       .  S
C159        C160   1.385       .  A
C159        C348   1.479       .  S
C160        H162   1.082       .  S
N163        N164   1.323       .  A
N163        C167   1.348       .  A
N163       Cu171   2.077       .  S
N164        C165   1.344       .  A
N164       Cu170   2.087       .  S
C165        C166   1.388       .  A
C165        H168   1.082       .  S
C166        C167   1.387       .  A
C166        C273   1.487       .  S
C167        H169   1.081       .  S
Cu170       N173   2.087       .  S
Cu171       N181   2.077       .  S
Cu172       N174   2.076       .  S
Cu172       N180   2.076       .  S
N173        N174   1.322       .  A
N173        C177   1.349       .  A
N174        C175   1.346       .  A
C175        C176   1.384       .  A
C175        H178   1.082       .  S
C176        C177   1.387       .  A
C177        H179   1.082       .  S
N180        N181   1.321       .  A
N180        C184   1.342       .  A
N181        C182   1.347       .  A
C182        C183   1.389       .  A
C182        H185   1.082       .  S
C183        C184   1.388       .  A
C183        C285   1.487       .  S
C184        H186   1.081       .  S
N187        N188   1.322       .  A
N187        C191   1.347       .  A
N187       Cu195   2.075       .  S
N188        C189   1.342       .  A
N188       Cu194   2.076       .  S
C189        C190   1.387       .  A
C189        H192   1.081       .  S
C190        C191   1.387       .  A
C190        C420   1.484       .  S
C191        H193   1.082       .  S
Cu194       N197   2.076       .  S
Cu195       N205   2.074   1_554  S
Cu196       N198   2.080       .  S
Cu196       N204   2.080       .  S
N197        N198   1.322   1_554  A
N197        C201   1.347       .  A
N198        C199   1.346       .  A
C199        C200   1.384   1_556  A
C199        H202   1.082       .  S
C200        C201   1.384       .  A
C200        C224   1.475       .  S
C201        H203   1.082       .  S
N204        N205   1.322       .  A
N204        C208   1.346       .  A
N205        C206   1.344       .  A
C206        C207   1.384       .  A
C206        H209   1.082       .  S
C207        C208   1.385       .  A
C207        C372   1.479       .  S
C208        H210   1.082       .  S
N211        N212   1.321       .  A
N211        C215   1.345       .  A
N211       Cu219   2.069   1_554  S
N212        C213   1.343       .  A
N212       Cu218   2.080       .  S
C213        C214   1.389       .  A
C213        H216   1.081       .  S
C214        C215   1.387       .  A
C214        C264   1.486       .  S
C215        H217   1.081       .  S
Cu218       N221   2.081       .  S
Cu219       N229   2.069       .  S
Cu220       N222   2.075       .  S
Cu220       N228   2.075       .  S
N221        N222   1.322   1_554  A
N221        C225   1.347       .  A
N222        C223   1.345       .  A
C223        C224   1.383   1_556  A
C223        H226   1.082       .  S
C224        C225   1.385       .  A
C225        H227   1.082       .  S
N228        N229   1.320       .  A
N228        C232   1.344       .  A
N229        C230   1.344       .  A
C230        C231   1.387       .  A
C230        H233   1.081       .  S
C231        C232   1.389       .  A
C231        C297   1.486       .  S
C232        H234   1.081       .  S
N235        C239   1.360       .  A
N235        C236   1.358       .  A
N235        C249   1.442       .  S
C236        C237   1.382       .  A
C236        C276   1.479       .  S
C237        C238   1.371       .  A
C237        H240   1.082       .  S
C238        C239   1.382       .  A
C238        H241   1.082       .  S
C239        C324   1.483       .  S
N242        C246   1.358       .  A
N242        C243   1.359       .  A
N242        C252   1.443       .  S
C243        C244   1.381       .  A
C243        C261   1.478       .  S
C244        C245   1.370       .  A
C244        H247   1.082       .  S
C245        C246   1.382       .  A
C245        H248   1.082       .  S
C246        C456   1.478       .  S
C249        C250   1.402       .  A
C249        C254   1.409       .  A
C250        C251   1.399       .  A
C250        H255   1.083       .  S
C251        C252   1.409       .  A
C251        O256   1.371       .  S
C252        C253   1.404       .  A
C253        C254   1.402       .  A
C253        H257   1.083       .  S
C254        O258   1.372       .  S
O256        H260   0.992       .  S
O258        H259   0.992       .  S
C261        C262   1.402       .  A
C261        C266   1.406       .  A
C262        C263   1.404       .  A
C262        H267   1.084       .  S
C263        C264   1.415       .  A
C263        O268   1.371       .  S
C264        C265   1.404       .  A
C265        C266   1.393       .  A
C265        H269   1.082       .  S
C266        O270   1.372       .  S
O268        H272   0.991       .  S
O270        H271   0.992       .  S
C273        C274   1.404       .  A
C273        C278   1.414       .  A
C274        C275   1.398       .  A
C274        H279   1.083       .  S
C275        C276   1.406       .  A
C275        O280   1.373       .  S
C276        C277   1.402       .  A
C277        C278   1.405       .  A
C277        H281   1.084       .  S
C278        O282   1.371       .  S
O280        H284   0.991       .  S
O282        H283   0.991       .  S
C285        C286   1.409       .  A
C285        C290   1.412       .  A
C286        C287   1.404       .  A
C286        H291   1.082       .  S
C287        C288   1.405       .  A
C287        O292   1.372       .  S
C288        C289   1.399       .  A
C289        C290   1.396       .  A
C289        H293   1.084       .  S
C290        O294   1.371       .  S
O292        H296   0.992       .  S
O294        H295   0.992       .  S
C297        C298   1.408       .  A
C297        C302   1.412       .  A
C298        C299   1.399       .  A
C298        H303   1.082       .  S
C299        C300   1.403       .  A
C299        O304   1.372       .  S
C300        C301   1.400       .  A
C301        C302   1.399       .  A
C301        H305   1.084       .  S
C302        O306   1.371       .  S
O304        H308   0.992       .  S
O306        H307   0.992       .  S
C309        C310   1.403       .  A
C309        C314   1.408       .  A
C310        C311   1.402       .  A
C310        H315   1.082       .  S
C311        C312   1.408       .  A
C311        O316   1.372       .  S
C312        C313   1.404       .  A
C313        C314   1.399       .  A
C313        H317   1.083       .  S
C314        O318   1.370       .  S
O316        H320   0.992       .  S
O318        H319   0.992       .  S
C321        C322   1.407       .  A
C321        C326   1.417       .  A
C322        C323   1.397       .  A
C322        H327   1.081       .  S
C323        C324   1.405       .  A
C323        O328   1.373       .  S
C324        C325   1.402       .  A
C325        C326   1.408       .  A
C325        H329   1.084       .  S
C326        O330   1.372       .  S
O328        H332   0.992       .  S
O330        H331   0.992       .  S
C333        C334   1.400       .  A
C333        C338   1.403       .  A
C334        C335   1.404       .  A
C334        H339   1.084       .  S
C335        C336   1.417       .  A
C335        O340   1.370       .  S
C336        C337   1.408       .  A
C337        C338   1.397       .  A
C337        H341   1.082       .  S
C338        O342   1.372       .  S
O340        H344   0.992       .  S
O342        H343   0.992       .  S
C345        C346   1.400       .  A
C345        C350   1.406       .  A
C346        C347   1.404       .  A
C346        H351   1.083       .  S
C347        C348   1.411       .  A
C347        O352   1.372       .  S
C348        C349   1.403       .  A
C349        C350   1.396       .  A
C349        H353   1.083       .  S
C350        O354   1.372       .  S
O352        H356   0.992       .  S
O354        H355   0.992   1_545  S
C357        C358   1.403   1_565  A
C357        C362   1.407       .  A
C358        C359   1.394   1_545  A
C358        H363   1.084       .  S
C359        C360   1.405       .  A
C359        O364   1.372       .  S
C360        C361   1.405       .  A
C361        C362   1.406       .  A
C361        H365   1.083       .  S
C362        O366   1.371       .  S
O364        H368   0.992   1_565  S
O366        H367   0.992       .  S
C369        C370   1.401       .  A
C369        C374   1.405       .  A
C370        C371   1.397       .  A
C370        H375   1.084       .  S
C371        C372   1.410       .  A
C371        O376   1.372       .  S
C372        C373   1.405       .  A
C373        C374   1.402       .  A
C373        H377   1.083       .  S
C374        O378   1.371       .  S
O376        H380   0.992       .  S
O378        H379   0.992       .  S
C381        C382   1.407       .  A
C381        C386   1.413       .  A
C382        C383   1.405       .  A
C382        H387   1.076       .  S
C383        C384   1.413   1_655  A
C383        O388   1.372   1_655  S
C384        C385   1.407   1_455  A
C385        C386   1.404       .  A
C385        H389   1.075   1_655  S
C386        O390   1.371       .  S
O388        H392   0.993   1_455  S
O390        H391   0.993       .  S
C393        C394   1.400       .  A
C393        C398   1.405       .  A
C394        C395   1.398       .  A
C394        H399   1.084       .  S
C395        C396   1.414       .  A
C395        O400   1.370       .  S
C396        C397   1.410       .  A
C397        C398   1.406       .  A
C397        H401   1.083       .  S
C398        O402   1.371       .  S
O400        H404   0.992       .  S
O402        H403   0.990   1_455  S
C405        C406   1.408       .  A
C405        C410   1.410       .  A
C406        C407   1.404       .  A
C406        H411   1.083       .  S
C407        C408   1.408       .  A
C407        O412   1.372   1_565  S
C408        C409   1.401       .  A
C409        C410   1.397       .  A
C409        H413   1.084       .  S
C410        O414   1.371       .  S
O412        H416   0.992       .  S
O414        H415   0.992       .  S
C417        C418   1.401       .  A
C417        C422   1.406       .  A
C418        C419   1.399       .  A
C418        H423   1.084       .  S
C419        C420   1.409       .  A
C419        O424   1.373       .  S
C420        C421   1.408       .  A
C421        C422   1.404       .  A
C421        H425   1.083       .  S
C422        O426   1.371       .  S
O424        H428   0.992       .  S
O426        H427   0.992       .  S
C429        C430   1.404   1_545  A
C429        C434   1.410       .  A
C430        C431   1.399       .  A
C430        H435   1.083       .  S
C431        C432   1.408   1_665  A
C431        O436   1.371       .  S
C432        C433   1.403   1_455  A
C433        C434   1.403       .  A
C433        H437   1.083   1_655  S
C434        O438   1.371       .  S
O436        H440   0.992       .  S
O438        H439   0.992       .  S
C441        C442   1.409       .  A
C441        C446   1.413       .  A
C442        C443   1.403       .  A
C442        H447   1.082       .  S
C443        C444   1.405       .  A
C443        O448   1.372       .  S
C444        C445   1.399       .  A
C445        C446   1.396       .  A
C445        H449   1.084       .  S
C446        O450   1.371       .  S
O448        H452   0.992       .  S
O450        H451   0.992       .  S
C453        C454   1.407       .  A
C453        C458   1.410       .  A
C454        C455   1.405       .  A
C454        H459   1.083       .  S
C455        C456   1.407       .  A
C455        O460   1.371       .  S
C456        C457   1.400       .  A
C457        C458   1.398       .  A
C457        H461   1.084       .  S
C458        O462   1.373       .  S
O460        H464   0.992       .  S
O462        H463   0.992       .  S
C465        C466   1.406       .  A
C465        C470   1.408       .  A
C466        C467   1.404       .  A
C466        H471   1.083       .  S
C467        C468   1.405       .  A
C467        O472   1.371       .  S
C468        C469   1.403   1_565  A
C469        C470   1.396   1_545  A
C469        H473   1.084       .  S
C470        O474   1.372   1_565  S
O472        H476   0.991       .  S
O474        H475   0.992   1_545  S
C477        C478   1.406       .  A
C477        C482   1.416       .  A
C478        C479   1.396       .  A
C478        H483   1.081       .  S
C479        C480   1.406   1_565  A
C479        O484   1.372       .  S
C480        C481   1.401       .  A
C481        C482   1.404   1_545  A
C481        H485   1.083       .  S
C482        O486   1.370       .  S
O484        H488   0.992       .  S
O486        H487   0.991       .  S
