geometry optimzed in LAMMPS
_audit_creation_date              2020-12-01 
_audit_creation_method            'lammps2cif' 
_symmetry_space_group_name_H-M    'P1' 
_symmetry_Int_Tables_number       1 
_symmetry_cell_setting            triclinic 
loop_ 
_symmetry_equiv_pos_as_xyz 
  x,y,z 
_cell_length_a                    31.03430874 
_cell_length_b                    30.773078886427083 
_cell_length_c                    72.11976706091292 
_cell_angle_alpha                 90.00104845265851 
_cell_angle_beta                  102.6999101439425 
_cell_angle_gamma                 90.00613528554184 
loop_ 
_atom_site_label 
_atom_site_type_symbol 
_atom_site_fract_x 
_atom_site_fract_y 
_atom_site_fract_z 
_atom_site_charge 
N1          N  0.27112924  0.98671481  0.62052302    -0.27300
N2          N  0.29432283  0.00693915  0.60981594    -0.35100
C3          C  0.31099982  0.97720626  0.59959961     0.01100
C4          C  0.29810481  0.93649154  0.60446999     0.07100
C5          C  0.27307621  0.94369545  0.61777616    -0.06000
H6          H  0.33270354  0.98448868  0.59014788     0.07800
H7          H  0.25732113  0.91946850  0.62491788     0.09000
Cu8        Cu  0.30689009  0.07313196  0.61241505     0.44200
Cu9        Cu  0.23607129  0.01845680  0.63765599     0.42000
Cu10       Cu  0.24262124  0.13479793  0.64052497     0.43900
N11         N  0.32433924  0.13408171  0.62401918    -0.34700
N12         N  0.30173986  0.15636240  0.63439701    -0.28900
C13         C  0.32520996  0.19187803  0.64140117    -0.05000
C14         C  0.36440418  0.19171998  0.63519660     0.07200
C15         C  0.36260037  0.15471409  0.62419210     0.01000
H16         H  0.31525354  0.21514122  0.65090470     0.08600
H17         H  0.38806723  0.14266263  0.61741148     0.07700
N18         N  0.19176801  0.09907304  0.64792107    -0.36100
N19         N  0.19188237  0.05611317  0.64816756    -0.28300
C20         C  0.15662908  0.04180216  0.65434068    -0.03500
C21         C  0.13260063  0.07737591  0.65782873     0.05100
C22         C  0.15558224  0.11327940  0.65356168     0.03200
H23         H  0.14824140  0.00793748  0.65550686     0.08300
H24         H  0.14701319  0.14709326  0.65473577     0.07100
N25         N  0.49067174  0.55504707  0.79984473    -0.27300
N26         N  0.45765646  0.53011799  0.80234168    -0.35100
C27         C  0.44082464  0.50884078  0.78604361     0.01100
C28         C  0.46382963  0.52162053  0.77260339     0.07100
C29         C  0.49496908  0.55107682  0.78176137    -0.06000
H30         H  0.41201414  0.48806088  0.78377150     0.07800
H31         H  0.51857582  0.56881682  0.77565490     0.09000
Cu32       Cu  0.43074564  0.53322990  0.82625272     0.44200
Cu33       Cu  0.52826117  0.59370045  0.82104993     0.42000
Cu34       Cu  0.47816072  0.61460410  0.86061044     0.43900
N35         N  0.39912396  0.55772828  0.84658487    -0.34700
N36         N  0.41497605  0.59018330  0.85809176    -0.28900
C37         C  0.38431309  0.60261231  0.86762252    -0.05000
C38         C  0.34778228  0.57618233  0.86203962     0.07200
C39         C  0.35834749  0.54791643  0.84881911     0.01000
H40         H  0.38861334  0.62843185  0.87805357     0.08600
H41         H  0.33729943  0.52314253  0.84088009     0.07700
N42         N  0.54349465  0.62889420  0.86086981    -0.36100
N43         N  0.56180856  0.62253636  0.84618372    -0.28300
C44         C  0.60478110  0.63370418  0.85115638    -0.03500
C45         C  0.61388264  0.64716210  0.86993430     0.05100
C46         C  0.57432329  0.64361615  0.87563704     0.03200
H47         H  0.62803917  0.63046769  0.84204957     0.08300
H48         H  0.56847137  0.65052899  0.88958348     0.07100
N49         N  0.41261862  0.56118395  0.66556247    -0.27300
N50         N  0.40836120  0.53305921  0.65143724    -0.35100
C51         C  0.39948013  0.55477118  0.63485161     0.01100
C52         C  0.39780116  0.59865823  0.63877905     0.07100
C53         C  0.40612648  0.60158147  0.65837672    -0.06000
H54         H  0.39430373  0.53966789  0.62099460     0.07800
H55         H  0.40778977  0.63085237  0.66680959     0.09000
Cu56       Cu  0.41421316  0.46658895  0.65565751     0.44200
Cu57       Cu  0.42772181  0.54276572  0.69384786     0.42000
Cu58       Cu  0.42661209  0.42687683  0.70419716     0.43900
N59         N  0.42013350  0.40157890  0.66320015    -0.34700
N60         N  0.42355193  0.38660992  0.68067132    -0.28900
C61         C  0.42743854  0.34297043  0.68040848    -0.05000
C62         C  0.42649398  0.33029474  0.66192590     0.07200
C63         C  0.42212666  0.36813662  0.65145147     0.01000
H64         H  0.43215145  0.32227441  0.69282086     0.08600
H65         H  0.42111322  0.37123491  0.63642009     0.07700
N66         N  0.43695011  0.47533639  0.72493585    -0.36100
N67         N  0.43995652  0.51710593  0.72103538    -0.28300
C68         C  0.45053017  0.53961181  0.73737694    -0.03500
C69         C  0.45352840  0.51083837  0.75227336     0.05100
C70         C  0.44445343  0.47038916  0.74394658     0.03200
H71         H  0.45481789  0.57449966  0.73831847     0.08300
H72         H  0.44449051  0.43956865  0.75116514     0.07100
N73         N  0.79231046  0.68301614  0.96036349    -0.27300
N74         N  0.83222683  0.70003575  0.96257930    -0.35100
C75         C  0.85213319  0.69939861  0.98113858     0.01100
C76         C  0.82362128  0.68015797  0.99093021     0.07100
C77         C  0.78613152  0.67000137  0.97737604    -0.06000
H78         H  0.88571060  0.70981647  0.98689709     0.07800
H79         H  0.75672203  0.65395217  0.97966849     0.09000
Cu80       Cu  0.85978642  0.71660940  0.93993242     0.44200
Cu81       Cu  0.74865219  0.67721321  0.93425070     0.42000
Cu82       Cu  0.79059851  0.70199037  0.89243038     0.43900
N83         N  0.88210624  0.72327369  0.91508216    -0.34700
N84         N  0.85685487  0.71969752  0.89779090    -0.28900
C85         C  0.88186525  0.72626216  0.88497100    -0.05000
C86         C  0.92482295  0.73339455  0.89474153     0.07200
C87         C  0.92390600  0.73109763  0.91373921     0.01000
H88         H  0.86994991  0.72448751  0.86971763     0.08600
H89         H  0.95154783  0.73492744  0.92572429     0.07700
N90         N  0.72652682  0.68068193  0.89139916    -0.36100
N91         N  0.71102507  0.67292866  0.90675429    -0.28300
C92         C  0.66856768  0.66049384  0.90144877    -0.03500
C93         C  0.65691640  0.65982075  0.88181497     0.05100
C94         C  0.69445851  0.67264391  0.87588326     0.03200
H95         H  0.64802710  0.65167114  0.91119229     0.08300
H96         H  0.69816097  0.67609757  0.86138876     0.07100
C97         C  0.43319160  0.28682255  0.65481421     0.80200
N98         N  0.47077570  0.27853287  0.64872066    -0.78100
C99         C  0.47399407  0.24237284  0.63837419     0.82700
N100        N  0.43911453  0.21486738  0.63374953    -0.78000
C101        C  0.40171714  0.22230480  0.64014069     0.82800
N102        N  0.39877301  0.25849121  0.65063313    -0.79700
N103        N  0.37755595  0.67210124  0.59826874    -0.34900
N104        N  0.37194989  0.69893549  0.61185915    -0.35100
C105        C  0.37904770  0.67718788  0.62843673     0.01100
C106        C  0.38904287  0.63453994  0.62501506     0.07100
C107        C  0.38776089  0.63243792  0.60576012    -0.06000
H108        H  0.37598856  0.69113367  0.64185141     0.07800
H109        H  0.39344217  0.60413234  0.59772626     0.09000
Cu110      Cu  0.35178462  0.76292451  0.60694390     0.44200
Cu111      Cu  0.36909425  0.68988558  0.57001755     0.42000
Cu112      Cu  0.32578141  0.79817523  0.55791958     0.43900
N113        N  0.33056572  0.82508971  0.59836890    -0.34700
N114        N  0.32303548  0.83873054  0.58055674    -0.28900
C115        C  0.31148894  0.88097110  0.57995809    -0.05000
C116        C  0.31094509  0.89404778  0.59822777     0.07200
C117        C  0.32291086  0.85788296  0.60950917     0.01000
H118        H  0.30265657  0.90020495  0.56712045     0.08600
H119        H  0.32614191  0.85563645  0.62472592     0.07700
N120        N  0.33156127  0.75115234  0.53805325    -0.36100
N121        N  0.35003201  0.71269787  0.54243626    -0.28300
C122        C  0.35013394  0.69070471  0.52632354    -0.03500
C123        C  0.32983799  0.71625481  0.51117637     0.05100
C124        C  0.31830944  0.75420813  0.51906559     0.03200
H125        H  0.36241835  0.65794798  0.52572734     0.08300
H126        H  0.30186583  0.78214442  0.51156722     0.07100
N127        N  0.16817242  0.48627712  0.90621240    -0.27300
N128        N  0.14415740  0.50638751  0.91660277    -0.35100
C129        C  0.12727358  0.47655413  0.92671870     0.01100
C130        C  0.14092063  0.43589211  0.92210295     0.07100
C131        C  0.16659266  0.44326483  0.90905662    -0.06000
H132        H  0.10490369  0.48369048  0.93589654     0.07800
H133        H  0.18294384  0.41914021  0.90211772     0.09000
Cu134      Cu  0.13109029  0.57255136  0.91360691     0.44200
Cu135      Cu  0.20348743  0.51822256  0.88925112     0.42000
Cu136      Cu  0.19645984  0.63465551  0.88597299     0.43900
N137        N  0.11393183  0.63355636  0.90187260    -0.34700
N138        N  0.13691116  0.65599890  0.89170106    -0.28900
C139        C  0.11350537  0.69147564  0.88457398    -0.05000
C140        C  0.07395534  0.69113232  0.89048647     0.07200
C141        C  0.07550055  0.65406461  0.90144376     0.01000
H142        H  0.12376218  0.71481436  0.87518063     0.08600
H143        H  0.04973773  0.64188159  0.90801915     0.07700
N144        N  0.24744874  0.59887084  0.87876528    -0.36100
N145        N  0.24750848  0.55590670  0.87866355    -0.28300
C146        C  0.28271204  0.54158436  0.87246243    -0.03500
C147        C  0.30650968  0.57716371  0.86880086     0.05100
C148        C  0.28346861  0.61307661  0.87300037     0.03200
H149        H  0.29116938  0.50772230  0.87135430     0.08300
H150        H  0.29182945  0.64689288  0.87165660     0.07100
N151        N  0.94606043  0.05373356  0.72575334    -0.27300
N152        N  0.97967233  0.02936588  0.72350758    -0.35100
C153        C  0.99630461  0.00829820  0.73987155     0.01100
C154        C  0.97251643  0.02062798  0.75309003     0.07100
C155        C  0.94112875  0.04960919  0.74374226    -0.06000
H156        H  0.02551186  0.98805078  0.74235816     0.07800
H157        H  0.91699236  0.06699548  0.74966458     0.09000
Cu158      Cu  0.00751637  0.03309010  0.69988657     0.44200
Cu159      Cu  0.90878661  0.09197314  0.70435241     0.42000
Cu160      Cu  0.95934208  0.11264095  0.66477204     0.43900
N161        N  0.03945068  0.05766516  0.67968800    -0.34700
N162        N  0.02324640  0.08939605  0.66782976    -0.28900
C163        C  0.05409066  0.10193842  0.65840151    -0.05000
C164        C  0.09110280  0.07633033  0.66443376     0.07200
C165        C  0.08061946  0.04844063  0.67780248     0.01000
H166        H  0.04957948  0.12720042  0.64771233     0.08600
H167        H  0.10191154  0.02424014  0.68603198     0.07700
N168        N  0.89379668  0.12668594  0.66443920    -0.36100
N169        N  0.87548347  0.12047753  0.67913960    -0.28300
C170        C  0.83257490  0.13184362  0.67420965    -0.03500
C171        C  0.82345280  0.14531979  0.65544683     0.05100
C172        C  0.86296176  0.14154025  0.64969581     0.03200
H173        H  0.80939832  0.12888644  0.68336748     0.08300
H174        H  0.86880718  0.14856252  0.63575772     0.07100
N175        N  0.02463979  0.06069550  0.86018516    -0.27300
N176        N  0.02746258  0.03258931  0.87425089    -0.35100
C177        C  0.03618629  0.05424943  0.89085960     0.01100
C178        C  0.03927508  0.09806194  0.88701959     0.07100
C179        C  0.03191763  0.10098363  0.86743942    -0.06000
H180        H  0.04037261  0.03914702  0.90468347     0.07800
H181        H  0.03146984  0.13019852  0.85905912     0.09000
Cu182      Cu  0.02041699  0.96608841  0.86995137     0.44200
Cu183      Cu  0.01017747  0.04249269  0.83185442     0.42000
Cu184      Cu  0.00964510  0.92650974  0.82153084     0.43900
N185        N  0.01540951  0.90092668  0.86240383    -0.34700
N186        N  0.01277175  0.88608578  0.84496282    -0.28900
C187        C  0.00983597  0.84236851  0.84518110    -0.05000
C188        C  0.01064297  0.82943792  0.86361421     0.07200
C189        C  0.01383234  0.86725777  0.87409516     0.01000
H190        H  0.00586810  0.82176030  0.83276311     0.08600
H191        H  0.01440215  0.87015543  0.88909561     0.07700
N192        N  0.99930306  0.97484939  0.80079864    -0.36100
N193        N  0.99701873  0.01671943  0.80466206    -0.28300
C194        C  0.98637829  0.03910830  0.78828758    -0.03500
C195        C  0.98256888  0.01009908  0.77342859     0.05100
C196        C  0.99124708  0.96968100  0.78179705     0.03200
H197        H  0.98269005  0.07405123  0.78729430     0.08300
H198        H  0.99071201  0.93875093  0.77461997     0.07100
N199        N  0.64642567  0.18608414  0.56527880    -0.27300
N200        N  0.60693542  0.20411967  0.56288410    -0.35100
C201        C  0.58752586  0.20378248  0.54425745     0.01100
C202        C  0.61593787  0.18367507  0.53464437     0.07100
C203        C  0.65282158  0.17274869  0.54835774    -0.06000
H204        H  0.55426425  0.21487640  0.53833539     0.07800
H205        H  0.68191478  0.15581258  0.54624667     0.09000
Cu206      Cu  0.57915456  0.22113402  0.58545888     0.44200
Cu207      Cu  0.68920437  0.17884503  0.59145274     0.42000
Cu208      Cu  0.64720168  0.20251840  0.63315576     0.43900
N209        N  0.55641039  0.22661724  0.61030080    -0.34700
N210        N  0.58115653  0.22138319  0.62761333    -0.28900
C211        C  0.55578968  0.22713642  0.64035910    -0.05000
C212        C  0.51312833  0.23550673  0.63052525     0.07200
C213        C  0.51459646  0.23478669  0.61155867     0.01000
H214        H  0.56724161  0.22397440  0.65559185     0.08600
H215        H  0.48728887  0.23978923  0.59953417     0.07700
N216        N  0.71111439  0.18038412  0.63424492    -0.36100
N217        N  0.72657460  0.17296107  0.61885768    -0.28300
C218        C  0.76884233  0.15992633  0.62406216    -0.03500
C219        C  0.78048276  0.15854285  0.64367849     0.05100
C220        C  0.74308485  0.17155157  0.64970499     0.03200
H221        H  0.78928361  0.15130361  0.61425181     0.08300
H222        H  0.73945460  0.17466317  0.66422304     0.07100
C223        C  0.00443049  0.78572208  0.87061467     0.80200
N224        N  0.96671599  0.77681741  0.87650406    -0.78100
C225        C  0.96376654  0.74057120  0.88682618     0.82700
N226        N  0.99895845  0.71354213  0.89158304    -0.78000
C227        C  0.03645126  0.72145419  0.88535281     0.82800
N228        N  0.03922285  0.75780141  0.87491694    -0.79700
N229        N  0.06017949  0.17132204  0.92764338    -0.27300
N230        N  0.06648785  0.19805973  0.91413253    -0.35100
C231        C  0.05931566  0.17636558  0.89752971     0.01100
C232        C  0.04850311  0.13386745  0.90084548     0.07100
C233        C  0.04940621  0.13181441  0.92007156    -0.06000
H234        H  0.06277816  0.19025187  0.88415945     0.07800
H235        H  0.04304966  0.10363500  0.92803383     0.09000
Cu236      Cu  0.08732289  0.26197105  0.91916301     0.44200
Cu237      Cu  0.06828919  0.18892390  0.95592280     0.42000
Cu238      Cu  0.11220260  0.29692238  0.96819330     0.43900
N239        N  0.10852706  0.32420155  0.92787571    -0.34700
N240        N  0.11567501  0.33769296  0.94570353    -0.28900
C241        C  0.12715134  0.37997447  0.94642406    -0.05000
C242        C  0.12803235  0.39328877  0.92821739     0.07200
C243        C  0.11636276  0.35717083  0.91684989     0.01000
H244        H  0.13564813  0.39910007  0.95930492     0.08600
H245        H  0.11340822  0.35510010  0.90164494     0.07700
N246        N  0.10538237  0.25007568  0.98798631    -0.36100
N247        N  0.08674631  0.21170764  0.98355055    -0.28300
C248        C  0.08607314  0.18984030  0.99964631    -0.03500
C249        C  0.10614076  0.21540286  0.01483956     0.05100
C250        C  0.11814604  0.25320380  0.00698518     0.03200
H251        H  0.07365316  0.15712474  0.00020777     0.08300
H252        H  0.13470793  0.28105249  0.01451622     0.07100
N253        N  0.66608277  0.90048841  0.40546251    -0.27300
N254        N  0.64246051  0.88032824  0.41600810    -0.35100
C255        C  0.62581141  0.91011965  0.42622229     0.01100
C256        C  0.63921054  0.95080003  0.42151475     0.07100
C257        C  0.66447035  0.94348986  0.40830729    -0.06000
H258        H  0.60381294  0.90292720  0.43555717     0.07800
H259        H  0.68059301  0.96764903  0.40128587     0.09000
Cu260      Cu  0.62961598  0.81413693  0.41317021     0.44200
Cu261      Cu  0.70119720  0.86870839  0.38837275     0.42000
Cu262      Cu  0.69391309  0.75242223  0.38497572     0.43900
N263        N  0.61229934  0.75312543  0.40152105    -0.34700
N264        N  0.63485910  0.73085761  0.39111975    -0.28900
C265        C  0.61139489  0.69532895  0.38411548    -0.05000
C266        C  0.57224209  0.69546661  0.39034606     0.07200
C267        C  0.57407797  0.73245528  0.40136581     0.01000
H268        H  0.62131029  0.67210323  0.37458568     0.08600
H269        H  0.54862826  0.74449078  0.40815989     0.07700
N270        N  0.74495832  0.78811318  0.37776678    -0.36100
N271        N  0.74519812  0.83107499  0.37774731    -0.28300
C272        C  0.78060256  0.84533580  0.37167348    -0.03500
C273        C  0.80432668  0.80970235  0.36800683     0.05100
C274        C  0.78103126  0.77383722  0.37206844     0.03200
H275        H  0.78927885  0.87917689  0.37068713     0.08300
H276        H  0.78932034  0.74000386  0.37072239     0.07100
C277        C  0.50283393  0.60067475  0.37075331     0.80200
N278        N  0.46526491  0.60939123  0.37678611    -0.78100
C279        C  0.46232932  0.64565762  0.38709871     0.82700
N280        N  0.49745090  0.67282608  0.39175270    -0.78000
C281        C  0.53480270  0.66504191  0.38538936     0.82800
N282        N  0.53749189  0.62875609  0.37491474    -0.79700
N283        N  0.44670120  0.33387145  0.22571782    -0.27300
N284        N  0.48037842  0.35807996  0.22341576    -0.35100
C285        C  0.49720069  0.37916141  0.23975872     0.01100
C286        C  0.47344412  0.36700613  0.25301395     0.07100
C287        C  0.44189587  0.33812250  0.24371416    -0.06000
H288        H  0.52652450  0.39924808  0.24220950     0.07800
H289        H  0.41777375  0.32083067  0.24968347     0.09000
Cu290      Cu  0.50803904  0.35402648  0.19976082     0.44200
Cu291      Cu  0.40923893  0.29550476  0.20443099     0.42000
Cu292      Cu  0.45960053  0.27400978  0.16491068     0.43900
N293        N  0.53970953  0.32906968  0.17955883    -0.34700
N294        N  0.52339296  0.29718321  0.16780882    -0.28900
C295        C  0.55406242  0.28445666  0.15833177    -0.05000
C296        C  0.59108484  0.31010134  0.16422259     0.07200
C297        C  0.58080157  0.33820725  0.17755594     0.01000
H298        H  0.54940852  0.25906250  0.14769887     0.08600
H299        H  0.60216710  0.36251521  0.18567412     0.07700
N300        N  0.39411721  0.26023301  0.16462648    -0.36100
N301        N  0.37583475  0.26671461  0.17931402    -0.28300
C302        C  0.33290242  0.25544380  0.17440855    -0.03500
C303        C  0.32376726  0.24177374  0.15567260     0.05100
C304        C  0.36326060  0.24532419  0.14991098     0.03200
H305        H  0.30972272  0.25862273  0.18355396     0.08300
H306        H  0.36908771  0.23810682  0.13598716     0.07100
N307        N  0.52367980  0.32607510  0.35994106    -0.27300
N308        N  0.52648053  0.35407577  0.37404140    -0.35100
C309        C  0.53519377  0.33232971  0.39061889     0.01100
C310        C  0.53829342  0.28856704  0.38671685     0.07100
C311        C  0.53094805  0.28574650  0.36713815    -0.06000
H312        H  0.53942336  0.34735013  0.40446158     0.07800
H313        H  0.53058983  0.25659570  0.35872405     0.09000
Cu314      Cu  0.51952811  0.42052864  0.36984058     0.44200
Cu315      Cu  0.50960910  0.34456442  0.33167327     0.42000
Cu316      Cu  0.51043824  0.46060148  0.32159298     0.43900
N317        N  0.51441321  0.48566528  0.36239284    -0.34700
N318        N  0.51248757  0.50072237  0.34503780    -0.28900
C319        C  0.50932220  0.54441214  0.34532197    -0.05000
C320        C  0.50912933  0.55705832  0.36369781     0.07200
C321        C  0.51208753  0.51913668  0.37408663     0.01000
H322        H  0.50589571  0.56518425  0.33297807     0.08600
H323        H  0.51210434  0.51603444  0.38902945     0.07700
N324        N  0.50032674  0.41244397  0.30078220    -0.36100
N325        N  0.49746930  0.37059473  0.30456379    -0.28300
C326        C  0.48687580  0.34835045  0.28815659    -0.03500
C327        C  0.48369401  0.37741440  0.27335821     0.05100
C328        C  0.49269006  0.41773208  0.28179372     0.03200
H329        H  0.48266812  0.31346459  0.28710330     0.08300
H330        H  0.49250222  0.44869054  0.27466936     0.07100
N331        N  0.14572397  0.20205657  0.06568308    -0.27300
N332        N  0.10619076  0.18415303  0.06339582    -0.35100
C333        C  0.08655449  0.18442074  0.04479184     0.01100
C334        C  0.11487336  0.20433805  0.03507513     0.07100
C335        C  0.15192349  0.21524688  0.04871010    -0.06000
H336        H  0.05324965  0.17332977  0.03895114     0.07800
H337        H  0.18104389  0.23198470  0.04650249     0.09000
Cu338      Cu  0.07883680  0.16717321  0.08609046     0.44200
Cu339      Cu  0.18893101  0.20902270  0.09178749     0.42000
Cu340      Cu  0.14781531  0.18436121  0.13367002     0.43900
N341        N  0.05662632  0.16142211  0.11104125    -0.34700
N342        N  0.08173357  0.16603903  0.12831620    -0.28900
C343        C  0.05665029  0.16019395  0.14116192    -0.05000
C344        C  0.01379405  0.15243326  0.13142597     0.07200
C345        C  0.01484915  0.15358575  0.11242347     0.01000
H346        H  0.06844203  0.16288848  0.15639566     0.08600
H347        H  0.98729348  0.14905437  0.10045949     0.07700
N348        N  0.21150313  0.20662485  0.13458630    -0.36100
N349        N  0.22669276  0.21441641  0.11915972    -0.28300
C350        C  0.26894801  0.22752461  0.12431525    -0.03500
C351        C  0.28079835  0.22858099  0.14393326     0.05100
C352        C  0.24358671  0.21530179  0.15001523     0.03200
H353        H  0.28921927  0.23645793  0.11447844     0.08300
H354        H  0.24014677  0.21191214  0.16454841     0.07100
N355        N  0.55962214  0.21532492  0.42728719    -0.27300
N356        N  0.56601053  0.18865955  0.41377108    -0.35100
C357        C  0.55867808  0.21034256  0.39716853     0.01100
C358        C  0.54766751  0.25275778  0.40050533     0.07100
C359        C  0.54862831  0.25478318  0.41973070    -0.06000
H360        H  0.56216601  0.19651402  0.38379094     0.07800
H361        H  0.54219341  0.28291106  0.42770580     0.09000
Cu362      Cu  0.58702426  0.12489340  0.41883711     0.44200
Cu363      Cu  0.56805718  0.19772156  0.45554010     0.42000
Cu364      Cu  0.61267048  0.09002225  0.46793204     0.43900
N365        N  0.60780265  0.06261779  0.42752706    -0.34700
N366        N  0.61521477  0.04911110  0.44535818    -0.28900
C367        C  0.62628191  0.00672280  0.44600137    -0.05000
C368        C  0.62660462  0.99338760  0.42773756     0.07200
C369        C  0.61504277  0.02957993  0.41642394     0.01000
H370        H  0.63494509  0.98754954  0.45886222     0.08600
H371        H  0.61181724  0.03168134  0.40120372     0.07700
N372        N  0.60625838  0.13719963  0.48767043    -0.36100
N373        N  0.58729671  0.17539511  0.48317248    -0.28300
C374        C  0.58678805  0.19751977  0.49921351    -0.03500
C375        C  0.60730002  0.17232918  0.51444467     0.05100
C376        C  0.61940444  0.13445510  0.50667044     0.03200
H377        H  0.57407192  0.23013620  0.49970271     0.08300
H378        H  0.63617340  0.10677577  0.51425832     0.07100
N379        N  0.77074909  0.39964906  0.12015309    -0.27300
N380        N  0.79419333  0.37944616  0.10954821    -0.35100
C381        C  0.81109280  0.40920956  0.09942094     0.01100
C382        C  0.79809126  0.44992579  0.10425261     0.07100
C383        C  0.77273520  0.44268008  0.11743237    -0.06000
H384        H  0.83308051  0.40195875  0.09008877     0.07800
H385        H  0.75687150  0.46688620  0.12453796     0.09000
Cu386      Cu  0.80688872  0.31326207  0.11229317     0.44200
Cu387      Cu  0.73565324  0.36776375  0.13721269     0.42000
Cu388      Cu  0.74196909  0.25125438  0.14003772     0.43900
N389        N  0.82438664  0.25243978  0.12406812    -0.34700
N390        N  0.80150484  0.23000104  0.13427813    -0.28900
C391        C  0.82507354  0.19468818  0.14147485    -0.05000
C392        C  0.86463943  0.19515318  0.13557848     0.07200
C393        C  0.86294273  0.23211531  0.12455018     0.01000
H394        H  0.81492355  0.17139366  0.15091489     0.08600
H395        H  0.88866317  0.24435388  0.11796303     0.07700
N396        N  0.69126668  0.28711192  0.14743319    -0.36100
N397        N  0.69153013  0.33007147  0.14772195    -0.28300
C398        C  0.65644963  0.34445759  0.15398958    -0.03500
C399        C  0.63238703  0.30894163  0.15749706     0.05100
C400        C  0.65514453  0.27298291  0.15314152     0.03200
H401        H  0.64822251  0.37834180  0.15522429     0.08300
H402        H  0.64650981  0.23918874  0.15432727     0.07100
N403        N  0.98947079  0.83071810  0.29964864    -0.27300
N404        N  0.95671685  0.85601312  0.30213185    -0.35100
C405        C  0.94014699  0.87736995  0.28583120     0.01100
C406        C  0.96304544  0.86425431  0.27240575     0.07100
C407        C  0.99385448  0.83452348  0.28157180    -0.06000
H408        H  0.91157962  0.89847017  0.28354977     0.07800
H409        H  0.01732105  0.81652900  0.27548349     0.09000
Cu410      Cu  0.92974350  0.85329027  0.32602716     0.44200
Cu411      Cu  0.02665469  0.79193988  0.32088858     0.42000
Cu412      Cu  0.97625484  0.77139916  0.36036373     0.43900
N413        N  0.89768436  0.82887154  0.34622206    -0.34700
N414        N  0.91313724  0.79621654  0.35768283    -0.28900
C415        C  0.88215119  0.78387397  0.36705985    -0.05000
C416        C  0.84584320  0.81057173  0.36143030     0.07200
C417        C  0.85686946  0.83890009  0.34834015     0.01000
H418        H  0.88607221  0.75791369  0.37741509     0.08600
H419        H  0.83609143  0.86384290  0.34039182     0.07700
N420        N  0.04166638  0.75701381  0.36074070    -0.36100
N421        N  0.06005311  0.76328544  0.34607005    -0.28300
C422        C  0.10303827  0.75222244  0.35108658    -0.03500
C423        C  0.11210033  0.73889957  0.36987786     0.05100
C424        C  0.07248381  0.74242419  0.37554679     0.03200
H425        H  0.12633168  0.75544501  0.34199510     0.08300
H426        H  0.06659534  0.73561146  0.38949584     0.07100
N427        N  0.91316983  0.82557964  0.16529163    -0.27300
N428        N  0.91008637  0.85362369  0.15118988    -0.35100
C429        C  0.90183786  0.83180300  0.13461547     0.01100
C430        C  0.89934898  0.78795749  0.13853670     0.07100
C431        C  0.90653482  0.78519427  0.15810968    -0.06000
H432        H  0.89763312  0.84679441  0.12076805     0.07800
H433        H  0.90736715  0.75601128  0.16654159     0.09000
Cu434      Cu  0.91648689  0.92016678  0.15549717     0.44200
Cu435      Cu  0.92720152  0.84384679  0.19359330     0.42000
Cu436      Cu  0.92700630  0.95936437  0.20413846     0.43900
N437        N  0.92175628  0.98518773  0.16327292    -0.34700
N438        N  0.92436129  0.99984803  0.18074464    -0.28900
C439        C  0.92769016  0.04353936  0.18063820    -0.05000
C440        C  0.92721201  0.05663362  0.16225907     0.07200
C441        C  0.92375157  0.01895161  0.15168206     0.01000
H442        H  0.93170768  0.06400890  0.19310077     0.08600
H443        H  0.92330454  0.01620150  0.13668705     0.07700
N444        N  0.93685469  0.91086692  0.22481603    -0.36100
N445        N  0.93943549  0.86909353  0.22084987    -0.28300
C446        C  0.94972470  0.84643414  0.23715704    -0.03500
C447        C  0.95298143  0.87514683  0.25209328     0.05100
C448        C  0.94436353  0.91570070  0.24382873     0.03200
H449        H  0.95365740  0.81150520  0.23804772     0.08300
H450        H  0.94469483  0.94650094  0.25109024     0.07100
N451        N  0.29008958  0.70245939  0.46035355    -0.27300
N452        N  0.32995595  0.68529636  0.46264575    -0.35100
C453        C  0.34964297  0.68584140  0.48123256     0.01100
C454        C  0.32102965  0.70517412  0.49095091     0.07100
C455        C  0.28372289  0.71546734  0.47733289    -0.06000
H456        H  0.38316145  0.67534923  0.48705860     0.07800
H457        H  0.25432618  0.73165326  0.47955602     0.09000
Cu458      Cu  0.35778756  0.66883170  0.44005783     0.44200
Cu459      Cu  0.24673076  0.70862948  0.43420826     0.42000
Cu460      Cu  0.28906791  0.68466815  0.39248254     0.43900
N461        N  0.38036554  0.66266875  0.41524199    -0.34700
N462        N  0.35531477  0.66676371  0.39793229    -0.28900
C463        C  0.38048089  0.66043222  0.38515391    -0.05000
C464        C  0.42332679  0.65290049  0.39497113     0.07200
C465        C  0.42218410  0.65471730  0.41395444     0.01000
H466        H  0.36874313  0.66257613  0.36990067     0.08600
H467        H  0.44968020  0.65046132  0.42596695     0.07700
N468        N  0.22486348  0.70576918  0.39137995    -0.36100
N469        N  0.20923382  0.71325395  0.40672233    -0.28300
C470        C  0.16673483  0.72553897  0.40140844    -0.03500
C471        C  0.15516382  0.72637405  0.38177650     0.05100
C472        C  0.19281499  0.71381919  0.37585810     0.03200
H473        H  0.14609670  0.73410128  0.41114746     0.08300
H474        H  0.19659317  0.71052996  0.36136743     0.07100
C475        C  0.93377430  0.10037333  0.15538688     0.80200
N476        N  0.97158306  0.10915983  0.14955655    -0.78100
C477        C  0.97483724  0.14554716  0.13936602     0.82700
N478        N  0.93979868  0.17279519  0.13463828    -0.78000
C479        C  0.90217393  0.16491028  0.14077823     0.82800
N480        N  0.89915768  0.12847517  0.15111435    -0.79700
N481        N  0.88022303  0.71386464  0.09820668    -0.27300
N482        N  0.87376963  0.68735355  0.11176987    -0.35100
C483        C  0.88035081  0.70939549  0.12826766     0.01100
C484        C  0.89089542  0.75189396  0.12483025     0.07100
C485        C  0.89048491  0.75359195  0.10564139    -0.06000
H486        H  0.87654750  0.69576079  0.14163592     0.07800
H487        H  0.89672971  0.78168980  0.09760536     0.09000
Cu488      Cu  0.85308162  0.62338289  0.10694729     0.44200
Cu489      Cu  0.87249603  0.69571984  0.07000776     0.42000
Cu490      Cu  0.82839557  0.58774357  0.05802473     0.43900
N491        N  0.83148323  0.56121527  0.09837733    -0.34700
N492        N  0.82451602  0.54747111  0.08059143    -0.28900
C493        C  0.81263069  0.50532526  0.07992975    -0.05000
C494        C  0.81124733  0.49237651  0.09812325     0.07200
C495        C  0.82309511  0.52854643  0.10943623     0.01000
H496        H  0.80419448  0.48605645  0.06708846     0.08600
H497        H  0.82583019  0.53084578  0.12462192     0.07700
N498        N  0.83451506  0.63444967  0.03810098    -0.36100
N499        N  0.85326805  0.67280487  0.04242667    -0.28300
C500        C  0.85329849  0.69467652  0.02627474    -0.03500
C501        C  0.83265517  0.66915158  0.01117065     0.05100
C502        C  0.82101211  0.63133732  0.01912527     0.03200
H503        H  0.86571640  0.72736644  0.02562442     0.08300
H504        H  0.80426057  0.60347707  0.01168113     0.07100
loop_ 
_geom_bond_atom_site_label_1 
_geom_bond_atom_site_label_2 
_geom_bond_distance 
_geom_bond_site_symmetry_2 
_ccdc_geom_bond_type 
N1            N2   1.321   1_565  A
N1            C5   1.342       .  A
N1           Cu9   2.063   1_565  S
N2            C3   1.347   1_545  A
N2           Cu8   2.075       .  S
C3            C4   1.384       .  A
C3            H6   1.082       .  S
C4            C5   1.379       .  A
C4          C116   1.465       .  S
C5            H7   1.082       .  S
Cu8          N11   2.077       .  S
Cu9          N19   2.063       .  S
Cu10         N12   2.088       .  S
Cu10         N18   2.087       .  S
N11          N12   1.324       .  A
N11          C15   1.344       .  A
N12          C13   1.348       .  A
C13          C14   1.385       .  A
C13          H16   1.082       .  S
C14          C15   1.382       .  A
C14         C101   1.474       .  S
C15          H17   1.082       .  S
N18          N19   1.322       .  A
N18          C22   1.349       .  A
N19          C20   1.343       .  A
C20          C21   1.379       .  A
C20          H23   1.082       .  S
C21          C22   1.386       .  A
C21         C164   1.468       .  S
C22          H24   1.082       .  S
N25          N26   1.324       .  A
N25          C29   1.345       .  A
N25         Cu33   2.081       .  S
N26          C27   1.347       .  A
N26         Cu32   2.077       .  S
C27          C28   1.381       .  A
C27          H30   1.082       .  S
C28          C29   1.382       .  A
C28          C69   1.468       .  S
C29          H31   1.082       .  S
Cu32         N35   2.077       .  S
Cu33         N43   2.080       .  S
Cu34         N36   2.070       .  S
Cu34         N42   2.071       .  S
N35          N36   1.322       .  A
N35          C39   1.345       .  A
N36          C37   1.346       .  A
C37          C38   1.381       .  A
C37          H40   1.082       .  S
C38          C39   1.382       .  A
C38         C147   1.468       .  S
C39          H41   1.082       .  S
N42          N43   1.322       .  A
N42          C46   1.344       .  A
N43          C44   1.347       .  A
C44          C45   1.385       .  A
C44          H47   1.082       .  S
C45          C46   1.382       .  A
C45          C93   1.472       .  S
C46          H48   1.082       .  S
N49          N50   1.321       .  A
N49          C53   1.345       .  A
N49         Cu57   2.069       .  S
N50          C51   1.345       .  A
N50         Cu56   2.070       .  S
C51          C52   1.383       .  A
C51          H54   1.082       .  S
C52          C53   1.383       .  A
C52         C106   1.470       .  S
C53          H55   1.082       .  S
Cu56         N59   2.071       .  S
Cu57         N67   2.070       .  S
Cu58         N60   2.086       .  S
Cu58         N66   2.086       .  S
N59          N60   1.324       .  A
N59          C63   1.343       .  A
N60          C61   1.349       .  A
C61          C62   1.383       .  A
C61          H64   1.082       .  S
C62          C63   1.378       .  A
C62          C97   1.464       .  S
C63          H65   1.082       .  S
N66          N67   1.323       .  A
N66          C70   1.348       .  A
N67          C68   1.344       .  A
C68          C69   1.379       .  A
C68          H71   1.082       .  S
C69          C70   1.384       .  A
C70          H72   1.082       .  S
N73          N74   1.322       .  A
N73          C77   1.344       .  A
N73         Cu81   2.072       .  S
N74          C75   1.345       .  A
N74         Cu80   2.067       .  S
C75          C76   1.381       .  A
C75          H78   1.082       .  S
C76          C77   1.381       .  A
C76         C501   1.464   1_556  S
C77          H79   1.082       .  S
Cu80         N83   2.069       .  S
Cu81         N91   2.072       .  S
Cu82         N84   2.080       .  S
Cu82         N90   2.079       .  S
N83          N84   1.323       .  A
N83          C87   1.344       .  A
N84          C85   1.347       .  A
C85          C86   1.382       .  A
C85          H88   1.082       .  S
C86          C87   1.378       .  A
C86         C225   1.462       .  S
C87          H89   1.082       .  S
N90          N91   1.322       .  A
N90          C94   1.347       .  A
N91          C92   1.344       .  A
C92          C93   1.382       .  A
C92          H95   1.082       .  S
C93          C94   1.384       .  A
C94          H96   1.082       .  S
C97          N98   1.358       .  A
C97         N102   1.360       .  A
N98          C99   1.356       .  A
C99         N100   1.357       .  A
C99         C212   1.464       .  S
N100        C101   1.359       .  A
C101        N102   1.361       .  A
N103        N104   1.322       .  A
N103        C107   1.344       .  A
N103       Cu111   2.070       .  S
N104        C105   1.345       .  A
N104       Cu110   2.073       .  S
C105        C106   1.383       .  A
C105        H108   1.081       .  S
C106        C107   1.382       .  A
C107        H109   1.082       .  S
Cu110       N113   2.073       .  S
Cu111       N121   2.069       .  S
Cu112       N114   2.072       .  S
Cu112       N120   2.072       .  S
N113        N114   1.323       .  A
N113        C117   1.343       .  A
N114        C115   1.347       .  A
C115        C116   1.381       .  A
C115        H118   1.082       .  S
C116        C117   1.380       .  A
C117        H119   1.082       .  S
N120        N121   1.323       .  A
N120        C124   1.344       .  A
N121        C122   1.345       .  A
C122        C123   1.381       .  A
C122        H125   1.082       .  S
C123        C124   1.380       .  A
C123        C454   1.464       .  S
C124        H126   1.082       .  S
N127        N128   1.321       .  A
N127        C131   1.342       .  A
N127       Cu135   2.062       .  S
N128        C129   1.348       .  A
N128       Cu134   2.078       .  S
C129        C130   1.385       .  A
C129        H132   1.082       .  S
C130        C131   1.379       .  A
C130        C242   1.467       .  S
C131        H133   1.082       .  S
Cu134       N137   2.080       .  S
Cu135       N145   2.062       .  S
Cu136       N138   2.086       .  S
Cu136       N144   2.085       .  S
N137        N138   1.324       .  A
N137        C141   1.344       .  A
N138        C139   1.349       .  A
C139        C140   1.385       .  A
C139        H142   1.082       .  S
C140        C141   1.383       .  A
C140        C227   1.474       .  S
C141        H143   1.082       .  S
N144        N145   1.322       .  A
N144        C148   1.348       .  A
N145        C146   1.343       .  A
C146        C147   1.378       .  A
C146        H149   1.082       .  S
C147        C148   1.386       .  A
C148        H150   1.082       .  S
N151        N152   1.323       .  A
N151        C155   1.345       .  A
N151       Cu159   2.079       .  S
N152        C153   1.346       .  A
N152       Cu158   2.076   1_655  S
C153        C154   1.381       .  A
C153        H156   1.082   1_645  S
C154        C155   1.382       .  A
C154        C195   1.467       .  S
C155        H157   1.082       .  S
Cu158       N161   2.076       .  S
Cu159       N169   2.078       .  S
Cu160       N162   2.074   1_655  S
Cu160       N168   2.075       .  S
N161        N162   1.322       .  A
N161        C165   1.345       .  A
N162        C163   1.347       .  A
C163        C164   1.382       .  A
C163        H166   1.082       .  S
C164        C165   1.382       .  A
C165        H167   1.082       .  S
N168        N169   1.322       .  A
N168        C172   1.345       .  A
N169        C170   1.347       .  A
C170        C171   1.384       .  A
C170        H173   1.082       .  S
C171        C172   1.383       .  A
C171        C219   1.472       .  S
C172        H174   1.082       .  S
N175        N176   1.321       .  A
N175        C179   1.345       .  A
N175       Cu183   2.070       .  S
N176        C177   1.345       .  A
N176       Cu182   2.074   1_545  S
C177        C178   1.384       .  A
C177        H180   1.082       .  S
C178        C179   1.383       .  A
C178        C232   1.471       .  S
C179        H181   1.082       .  S
Cu182       N185   2.075       .  S
Cu183       N193   2.071   1_455  S
Cu184       N186   2.083       .  S
Cu184       N192   2.083   1_455  S
N185        N186   1.324       .  A
N185        C189   1.344       .  A
N186        C187   1.349       .  A
C187        C188   1.383       .  A
C187        H190   1.082       .  S
C188        C189   1.379       .  A
C188        C223   1.464       .  S
C189        H191   1.082       .  S
N192        N193   1.323   1_565  A
N192        C196   1.347       .  A
N193        C194   1.344       .  A
C194        C195   1.380       .  A
C194        H197   1.082       .  S
C195        C196   1.383   1_545  A
C196        H198   1.082       .  S
N199        N200   1.322       .  A
N199        C203   1.343       .  A
N199       Cu207   2.067       .  S
N200        C201   1.346       .  A
N200       Cu206   2.070       .  S
C201        C202   1.382       .  A
C201        H204   1.082       .  S
C202        C203   1.380       .  A
C202        C375   1.464       .  S
C203        H205   1.082       .  S
Cu206       N209   2.072       .  S
Cu207       N217   2.068       .  S
Cu208       N210   2.083       .  S
Cu208       N216   2.082       .  S
N209        N210   1.324       .  A
N209        C213   1.344       .  A
N210        C211   1.347       .  A
C211        C212   1.382       .  A
C211        H214   1.082       .  S
C212        C213   1.379       .  A
C213        H215   1.082       .  S
N216        N217   1.322       .  A
N216        C220   1.347       .  A
N217        C218   1.344       .  A
C218        C219   1.382       .  A
C218        H221   1.082       .  S
C219        C220   1.385       .  A
C220        H222   1.082       .  S
C223        N224   1.358   1_455  A
C223        N228   1.361       .  A
N224        C225   1.355       .  A
C225        N226   1.356       .  A
N226        C227   1.358   1_655  A
C227        N228   1.361       .  A
N229        N230   1.322       .  A
N229        C233   1.345       .  A
N229       Cu237   2.071       .  S
N230        C231   1.346       .  A
N230       Cu236   2.077       .  S
C231        C232   1.384       .  A
C231        H234   1.081       .  S
C232        C233   1.382       .  A
C233        H235   1.082       .  S
Cu236       N239   2.077       .  S
Cu237       N247   2.071       .  S
Cu238       N240   2.072       .  S
Cu238       N246   2.072       .  S
N239        N240   1.323       .  A
N239        C243   1.344       .  A
N240        C241   1.347       .  A
C241        C242   1.382       .  A
C241        H244   1.082       .  S
C242        C243   1.381       .  A
C243        H245   1.082       .  S
N246        N247   1.323       .  A
N246        C250   1.343   1_556  A
N247        C248   1.346       .  A
C248        C249   1.381   1_556  A
C248        H251   1.082   1_556  S
C249        C250   1.380       .  A
C249        C334   1.465       .  S
C250        H252   1.082       .  S
N253        N254   1.321       .  A
N253        C257   1.342       .  A
N253       Cu261   2.062       .  S
N254        C255   1.348       .  A
N254       Cu260   2.077       .  S
C255        C256   1.385       .  A
C255        H258   1.082       .  S
C256        C257   1.379       .  A
C256        C368   1.466       .  S
C257        H259   1.082       .  S
Cu260       N263   2.079       .  S
Cu261       N271   2.062       .  S
Cu262       N264   2.086       .  S
Cu262       N270   2.085       .  S
N263        N264   1.324       .  A
N263        C267   1.344       .  A
N264        C265   1.349       .  A
C265        C266   1.385       .  A
C265        H268   1.082       .  S
C266        C267   1.382       .  A
C266        C281   1.474       .  S
C267        H269   1.082       .  S
N270        N271   1.322       .  A
N270        C274   1.348       .  A
N271        C272   1.343       .  A
C272        C273   1.378       .  A
C272        H275   1.082       .  S
C273        C274   1.385       .  A
C273        C416   1.468       .  S
C274        H276   1.082       .  S
C277        N278   1.358       .  A
C277        N282   1.361       .  A
C277        C320   1.464       .  S
N278        C279   1.355       .  A
C279        N280   1.356       .  A
C279        C464   1.463       .  S
N280        C281   1.359       .  A
C281        N282   1.361       .  A
N283        N284   1.323       .  A
N283        C287   1.345       .  A
N283       Cu291   2.078       .  S
N284        C285   1.346       .  A
N284       Cu290   2.075       .  S
C285        C286   1.381       .  A
C285        H288   1.082       .  S
C286        C287   1.382       .  A
C286        C327   1.467       .  S
C287        H289   1.082       .  S
Cu290       N293   2.076       .  S
Cu291       N301   2.077       .  S
Cu292       N294   2.071       .  S
Cu292       N300   2.072       .  S
N293        N294   1.322       .  A
N293        C297   1.344       .  A
N294        C295   1.346       .  A
C295        C296   1.382       .  A
C295        H298   1.082       .  S
C296        C297   1.382       .  A
C296        C399   1.467       .  S
C297        H299   1.082       .  S
N300        N301   1.322       .  A
N300        C304   1.344       .  A
N301        C302   1.347       .  A
C302        C303   1.384       .  A
C302        H305   1.082       .  S
C303        C304   1.382       .  A
C303        C351   1.471       .  S
C304        H306   1.082       .  S
N307        N308   1.321       .  A
N307        C311   1.345       .  A
N307       Cu315   2.069       .  S
N308        C309   1.345       .  A
N308       Cu314   2.072       .  S
C309        C310   1.383       .  A
C309        H312   1.082       .  S
C310        C311   1.383       .  A
C310        C358   1.470       .  S
C311        H313   1.082       .  S
Cu314       N317   2.072       .  S
Cu315       N325   2.069       .  S
Cu316       N318   2.083       .  S
Cu316       N324   2.083       .  S
N317        N318   1.324       .  A
N317        C321   1.343       .  A
N318        C319   1.349       .  A
C319        C320   1.382       .  A
C319        H322   1.082       .  S
C320        C321   1.379       .  A
C321        H323   1.082       .  S
N324        N325   1.323       .  A
N324        C328   1.347       .  A
N325        C326   1.344       .  A
C326        C327   1.379       .  A
C326        H329   1.082       .  S
C327        C328   1.383       .  A
C328        H330   1.082       .  S
N331        N332   1.322       .  A
N331        C335   1.343       .  A
N331       Cu339   2.068       .  S
N332        C333   1.346       .  A
N332       Cu338   2.070       .  S
C333        C334   1.382       .  A
C333        H336   1.082       .  S
C334        C335   1.380       .  A
C335        H337   1.082       .  S
Cu338       N341   2.071       .  S
Cu339       N349   2.069       .  S
Cu340       N342   2.080       .  S
Cu340       N348   2.079       .  S
N341        N342   1.324       .  A
N341        C345   1.344       .  A
N342        C343   1.347       .  A
C343        C344   1.381       .  A
C343        H346   1.082       .  S
C344        C345   1.378       .  A
C344        C477   1.462   1_455  S
C345        H347   1.082   1_455  S
N348        N349   1.322       .  A
N348        C352   1.347       .  A
N349        C350   1.344       .  A
C350        C351   1.382       .  A
C350        H353   1.082       .  S
C351        C352   1.384       .  A
C352        H354   1.082       .  S
N355        N356   1.322       .  A
N355        C359   1.344       .  A
N355       Cu363   2.069       .  S
N356        C357   1.346       .  A
N356       Cu362   2.075       .  S
C357        C358   1.384       .  A
C357        H360   1.081       .  S
C358        C359   1.382       .  A
C359        H361   1.082       .  S
Cu362       N365   2.075       .  S
Cu363       N373   2.068       .  S
Cu364       N366   2.073       .  S
Cu364       N372   2.073       .  S
N365        N366   1.323       .  A
N365        C369   1.343       .  A
N366        C367   1.347       .  A
C367        C368   1.382   1_545  A
C367        H370   1.082   1_545  S
C368        C369   1.381   1_565  A
C369        H371   1.082       .  S
N372        N373   1.323       .  A
N372        C376   1.344       .  A
N373        C374   1.345       .  A
C374        C375   1.380       .  A
C374        H377   1.082       .  S
C375        C376   1.381       .  A
C376        H378   1.082       .  S
N379        N380   1.321       .  A
N379        C383   1.342       .  A
N379       Cu387   2.062       .  S
N380        C381   1.347       .  A
N380       Cu386   2.076       .  S
C381        C382   1.384       .  A
C381        H384   1.082       .  S
C382        C383   1.379       .  A
C382        C494   1.466       .  S
C383        H385   1.082       .  S
Cu386       N389   2.078       .  S
Cu387       N397   2.062       .  S
Cu388       N390   2.086       .  S
Cu388       N396   2.085       .  S
N389        N390   1.324       .  A
N389        C393   1.344       .  A
N390        C391   1.349       .  A
C391        C392   1.385       .  A
C391        H394   1.082       .  S
C392        C393   1.382       .  A
C392        C479   1.474       .  S
C393        H395   1.082       .  S
N396        N397   1.322       .  A
N396        C400   1.348       .  A
N397        C398   1.342       .  A
C398        C399   1.378       .  A
C398        H401   1.082       .  S
C399        C400   1.386       .  A
C400        H402   1.082       .  S
N403        N404   1.323       .  A
N403        C407   1.345       .  A
N403       Cu411   2.080   1_655  S
N404        C405   1.346       .  A
N404       Cu410   2.077       .  S
C405        C406   1.381       .  A
C405        H408   1.082       .  S
C406        C407   1.382       .  A
C406        C447   1.468       .  S
C407        H409   1.082   1_655  S
Cu410       N413   2.077       .  S
Cu411       N421   2.079       .  S
Cu412       N414   2.072       .  S
Cu412       N420   2.072   1_655  S
N413        N414   1.322       .  A
N413        C417   1.345       .  A
N414        C415   1.346       .  A
C415        C416   1.382       .  A
C415        H418   1.082       .  S
C416        C417   1.382       .  A
C417        H419   1.082       .  S
N420        N421   1.322       .  A
N420        C424   1.344       .  A
N421        C422   1.347       .  A
C422        C423   1.384       .  A
C422        H425   1.082       .  S
C423        C424   1.383       .  A
C423        C471   1.472       .  S
C424        H426   1.082       .  S
N427        N428   1.321       .  A
N427        C431   1.345       .  A
N427       Cu435   2.069       .  S
N428        C429   1.346       .  A
N428       Cu434   2.074       .  S
C429        C430   1.384       .  A
C429        H432   1.082       .  S
C430        C431   1.382       .  A
C430        C484   1.471       .  S
C431        H433   1.082       .  S
Cu434       N437   2.075       .  S
Cu435       N445   2.070       .  S
Cu436       N438   2.084       .  S
Cu436       N444   2.084       .  S
N437        N438   1.324       .  A
N437        C441   1.343   1_565  A
N438        C439   1.349   1_565  A
C439        C440   1.382       .  A
C439        H442   1.082       .  S
C440        C441   1.379       .  A
C440        C475   1.464       .  S
C441        H443   1.082       .  S
N444        N445   1.323       .  A
N444        C448   1.348       .  A
N445        C446   1.344       .  A
C446        C447   1.380       .  A
C446        H449   1.082       .  S
C447        C448   1.384       .  A
C448        H450   1.082       .  S
N451        N452   1.322       .  A
N451        C455   1.344       .  A
N451       Cu459   2.070       .  S
N452        C453   1.345       .  A
N452       Cu458   2.068       .  S
C453        C454   1.381       .  A
C453        H456   1.082       .  S
C454        C455   1.380       .  A
C455        H457   1.082       .  S
Cu458       N461   2.069       .  S
Cu459       N469   2.071       .  S
Cu460       N462   2.081       .  S
Cu460       N468   2.081       .  S
N461        N462   1.324       .  A
N461        C465   1.344       .  A
N462        C463   1.347       .  A
C463        C464   1.382       .  A
C463        H466   1.082       .  S
C464        C465   1.378       .  A
C465        H467   1.082       .  S
N468        N469   1.322       .  A
N468        C472   1.347       .  A
N469        C470   1.344       .  A
C470        C471   1.382       .  A
C470        H473   1.082       .  S
C471        C472   1.384       .  A
C472        H474   1.082       .  S
C475        N476   1.358       .  A
C475        N480   1.361       .  A
N476        C477   1.355       .  A
C477        N478   1.356       .  A
N478        C479   1.359       .  A
C479        N480   1.361       .  A
N481        N482   1.322       .  A
N481        C485   1.345       .  A
N481       Cu489   2.071       .  S
N482        C483   1.346       .  A
N482       Cu488   2.076       .  S
C483        C484   1.384       .  A
C483        H486   1.081       .  S
C484        C485   1.382       .  A
C485        H487   1.082       .  S
Cu488       N491   2.076       .  S
Cu489       N499   2.071       .  S
Cu490       N492   2.070       .  S
Cu490       N498   2.070       .  S
N491        N492   1.323       .  A
N491        C495   1.344       .  A
N492        C493   1.346       .  A
C493        C494   1.381       .  A
C493        H496   1.082       .  S
C494        C495   1.381       .  A
C495        H497   1.082       .  S
N498        N499   1.323       .  A
N498        C502   1.344       .  A
N499        C500   1.346       .  A
C500        C501   1.381       .  A
C500        H503   1.082       .  S
C501        C502   1.380       .  A
C502        H504   1.082       .  S
