geometry optimzed in LAMMPS
_audit_creation_date              2020-12-01 
_audit_creation_method            'lammps2cif' 
_symmetry_space_group_name_H-M    'P1' 
_symmetry_Int_Tables_number       1 
_symmetry_cell_setting            triclinic 
loop_ 
_symmetry_equiv_pos_as_xyz 
  x,y,z 
_cell_length_a                    27.79562074 
_cell_length_b                    27.8127061877136 
_cell_length_c                    29.456471646835812 
_cell_angle_alpha                 87.45331756462315 
_cell_angle_beta                  92.22638895686256 
_cell_angle_gamma                 89.42633109183902 
loop_ 
_atom_site_label 
_atom_site_type_symbol 
_atom_site_fract_x 
_atom_site_fract_y 
_atom_site_fract_z 
_atom_site_charge 
O1          O  0.05721283  0.02797753  0.45405419    -0.73900
O2          O  0.01151272  0.43416114  0.54701338    -0.74900
O3          O  0.01326834  0.44173988  0.45027044    -0.63500
O4          O  0.05814784  0.02037860  0.55161871    -0.71900
O5          O  0.48407679  0.05950497  0.55429754    -0.71500
O6          O  0.43997473  0.48574501  0.44917071    -0.62800
O7          O  0.44090467  0.47549914  0.54898252    -0.75300
O8          O  0.48017131  0.06991262  0.45949202    -0.74000
Cu9        Cu  0.03906778  0.48095711  0.50047546     1.04600
Cu10       Cu  0.45576277  0.02131857  0.50342961     1.04300
C11         C  0.02861408  0.06178752  0.43893556     0.92300
C12         C  0.46865559  0.44098873  0.56404471     0.91400
C13         C  0.46829904  0.45538739  0.43209852     0.83500
C14         C  0.03028444  0.05241247  0.56643563     0.89800
C15         C  0.48680568  0.44985662  0.71968819     0.85500
C16         C  0.02170592  0.43135868  0.75464809    -0.54700
C17         C  0.04034235  0.46861601  0.77905710     0.08400
C18         C  0.01255705  0.01853611  0.76557476     0.19400
C19         C  0.44742555  0.47755969  0.74232693    -0.55500
C20         C  0.45599469  0.01193879  0.77148727     0.08500
C21         C  0.00738997  0.98665219  0.69101397    -0.55000
C22         C  0.02339882  0.02433270  0.71442838     0.09100
H23         H  0.03279235  0.39405092  0.76092881     0.13600
H24         H  0.02598293  0.04850124  0.78612173    -0.00600
H25         H  0.41032889  0.46558114  0.74140060     0.13900
H26         H  0.01356032  0.98360939  0.65513767     0.13700
C27         C  0.05660483  0.49440414  0.22040539     0.85500
C28         C  0.07180954  0.03168660  0.25961840    -0.54700
C29         C  0.03276562  0.04962411  0.28101998     0.08400
C30         C  0.47955101  0.03329505  0.26676629     0.19400
C31         C  0.02730207  0.45539010  0.24394016    -0.55500
C32         C  0.48800205  0.47737203  0.27081351     0.08500
C33         C  0.02223093  0.03154922  0.19229540    -0.55000
C34         C  0.47902469  0.04745545  0.21524476     0.09100
H35         H  0.10878418  0.04109697  0.26810595     0.13600
H36         H  0.44774944  0.04659803  0.28438124    -0.00600
H37         H  0.03905108  0.41795082  0.24570018     0.13900
H38         H  0.02885465  0.04018017  0.15673925     0.13700
C39         C  0.46340088  0.36710395  0.34251713     0.79200
N40         N  0.45865492  0.38697240  0.38360159    -0.79100
C41         C  0.45753217  0.43549916  0.38743741     0.81700
N42         N  0.46310218  0.46475924  0.34974509    -0.79000
C43         C  0.46892173  0.44602442  0.30842131     0.81800
N44         N  0.46948562  0.39711366  0.30529790    -0.80700
O45         O  0.06978326  0.01917429  0.04884149    -0.73900
O46         O  0.48021752  0.06568350  0.94570140    -0.74900
O47         O  0.48042119  0.07476877  0.04468407    -0.63500
O48         O  0.06768994  0.01397250  0.95388449    -0.71900
O49         O  0.03485376  0.45073027  0.95521384    -0.71500
O50         O  0.44444187  0.49939467  0.04905677    -0.62800
O51         O  0.44550312  0.49450192  0.95272297    -0.75300
O52         O  0.03618408  0.45105539  0.05299055    -0.74000
Cu53       Cu  0.02440812  0.04179631  0.99751575     1.04600
Cu54       Cu  0.48895663  0.47128366  0.00448938     1.04300
C55         C  0.06866201  0.47919165  0.06776926     0.92300
C56         C  0.44870998  0.03548840  0.93248397     0.91400
C57         C  0.44914964  0.04766517  0.06312087     0.83500
C58         C  0.06610205  0.47913483  0.93858803     0.89800
C59         C  0.36325674  0.04046719  0.15294625     0.79200
N60         N  0.37963556  0.04597317  0.11018344    -0.79100
C61         C  0.42405861  0.06278614  0.10313054     0.81700
N62         N  0.45189893  0.07383887  0.13952248    -0.79000
C63         C  0.43883748  0.06279936  0.18290547     0.81800
N64         N  0.39376527  0.04636562  0.18959725    -0.80700
C65         C  0.01715567  0.15678362  0.34948941     0.79200
N66         N  0.02378208  0.13551022  0.39175720    -0.79100
C67         C  0.03837134  0.08887054  0.39731724     0.81700
N68         N  0.04473200  0.06277132  0.36049557    -0.79000
C69         C  0.03695734  0.08258346  0.31825556     0.81800
N70         N  0.02270006  0.12965788  0.31246980    -0.80700
C71         C  0.16658056  0.47957001  0.15520543     0.79200
N72         N  0.13938739  0.48256207  0.19242629    -0.79100
C73         C  0.09167239  0.47383642  0.18857030     0.81700
N74         N  0.07208758  0.46113369  0.14783815    -0.79000
C75         C  0.09696103  0.46577355  0.10967846     0.81800
N76         N  0.14453042  0.47544270  0.11339147    -0.80700
C77         C  0.35165968  0.02608997  0.84516009     0.79200
N78         N  0.37786848  0.02247159  0.80733398    -0.79100
C79         C  0.42660835  0.02845155  0.80930513     0.81700
N80         N  0.44890389  0.03790821  0.84985538    -0.79000
C81         C  0.42315606  0.04145990  0.88799334     0.81800
N82         N  0.37493661  0.03414722  0.88551326    -0.80700
C83         C  0.47529712  0.34207169  0.65059419     0.79200
N84         N  0.46846665  0.36481344  0.60886884    -0.79100
C85         C  0.45690732  0.41221202  0.60519425     0.81700
N86         N  0.45314815  0.43637988  0.64362990    -0.79000
C87         C  0.46728737  0.41589305  0.68501949     0.81800
N88         N  0.47805286  0.36835378  0.68843038    -0.80700
C89         C  0.02104128  0.14056804  0.65341746     0.79200
N90         N  0.02623082  0.11016423  0.69099920    -0.79100
C91         C  0.04341620  0.06481071  0.68652591     0.81700
N92         N  0.05736893  0.05207150  0.64478511    -0.79000
C93         C  0.04459674  0.07877185  0.60690435     0.81800
N94         N  0.02655937  0.12339960  0.61143679    -0.80700
C95         C  0.15434530  0.47459624  0.84895425     0.79200
N96         N  0.12384729  0.46987301  0.81180650    -0.79100
C97         C  0.07573012  0.46290107  0.81745242     0.81700
N98         N  0.05841382  0.46232383  0.85966547    -0.79000
C99         C  0.08806536  0.46801426  0.89639035     0.81800
N100        N  0.13551005  0.47544862  0.89083347    -0.80700
C101        C  0.00586237  0.26844704  0.68902822    -0.27300
C102        C  0.48459041  0.28994242  0.65431669    -0.15400
C103        C  0.46612281  0.25972362  0.62092376     0.35200
C104        C  0.47737059  0.21088226  0.62419644    -0.26800
C105        C  0.00309141  0.19002575  0.65649980    -0.16000
C106        C  0.01964293  0.21974568  0.69115272     0.36300
N107        N  0.05212322  0.20109694  0.72699836    -0.90200
H108        H  0.01985395  0.29169994  0.71484105     0.17400
H109        H  0.46335321  0.18829217  0.59780676     0.17400
N110        N  0.43555515  0.27821767  0.58373835    -0.89300
H111        H  0.06049665  0.22772495  0.74989504     0.34800
H112        H  0.08437252  0.19183198  0.71227109     0.39900
H113        H  0.40281307  0.26008754  0.58471326     0.39500
H114        H  0.45174372  0.27046032  0.55340479     0.34400
C115        C  0.28810959  0.48628065  0.87967221    -0.27300
C116        C  0.29975251  0.01291381  0.84461802    -0.15400
C117        C  0.26721769  0.02579503  0.80791383     0.35200
C118        C  0.21851799  0.01160893  0.80959898    -0.26800
C119        C  0.20717853  0.48297105  0.84473591    -0.16000
C120        C  0.23986866  0.47228940  0.88203939     0.36300
N121        N  0.22420333  0.44691359  0.92238011    -0.90200
H122        H  0.31238490  0.47821739  0.90874148     0.17800
H123        H  0.19343115  0.02270557  0.78196929     0.17400
N124        N  0.28338177  0.05414352  0.76959888    -0.89300
H125        H  0.25237301  0.44255353  0.94681044     0.34800
H126        H  0.21437679  0.41231606  0.91331499     0.39900
H127        H  0.29357140  0.08768581  0.78124612     0.39500
H128        H  0.25512823  0.06068919  0.74561142     0.34400
C129        C  0.23731586  0.02088329  0.19289631    -0.27300
C130        C  0.21877630  0.48736744  0.15904091    -0.15400
C131        C  0.24936115  0.47007682  0.12632404     0.35200
C132        C  0.29745724  0.48334629  0.12729366    -0.26800
C133        C  0.31473259  0.02153491  0.15809724    -0.16000
C134        C  0.28582007  0.03399605  0.19394936     0.36300
N135        N  0.30481331  0.06171880  0.23020871    -0.90200
H136        H  0.21489405  0.03210600  0.21987348     0.17400
H137        H  0.32014560  0.47075469  0.10105250     0.17400
N138        N  0.23179183  0.43927481  0.09177990    -0.89300
H139        H  0.30031037  0.04209501  0.26083464     0.34800
H140        H  0.28446990  0.09347446  0.23083885     0.39900
H141        H  0.25192064  0.40724430  0.09450005     0.39500
H142        H  0.23777091  0.45607379  0.06005820     0.34400
C143        C  0.96251248  0.27868741  0.37477956    -0.27300
C144        C  0.46884166  0.31315534  0.34061177    -0.15400
C145        C  0.48993460  0.29002542  0.30403272     0.35200
C146        C  0.50055744  0.23999729  0.30796549    -0.26800
C147        C  0.00106543  0.20821475  0.34454185    -0.16000
C148        C  0.97288992  0.22909620  0.37760231     0.36300
N149        N  0.95423846  0.20005428  0.41412688    -0.90200
H150        H  0.94152959  0.29378648  0.40104917     0.17400
H151        H  0.51832133  0.22315545  0.28059481     0.17400
N152        N  0.50220837  0.31729545  0.26362576    -0.89300
H153        H  0.91671383  0.20356000  0.41252063     0.34800
H154        H  0.96698834  0.21361825  0.44481827     0.39900
H155        H  0.46996753  0.32857175  0.24680626     0.39500
H156        H  0.51977713  0.29548592  0.24130373     0.34400
O157        O  0.05982254  0.53014913  0.45269817    -0.73900
O158        O  0.00870580  0.93102901  0.54662984    -0.74900
O159        O  0.01105171  0.93959273  0.44944107    -0.63500
O160        O  0.06171300  0.52327393  0.55077361    -0.71900
O161        O  0.49226958  0.56358587  0.55255854    -0.71500
O162        O  0.43472481  0.98179568  0.44937738    -0.62800
O163        O  0.43474020  0.97022946  0.54947488    -0.75300
O164        O  0.48891523  0.57246358  0.45756635    -0.74000
Cu165      Cu  0.03620614  0.97829174  0.50070728     1.04600
Cu166      Cu  0.46294741  0.52545060  0.50229591     1.04300
C167        C  0.03115270  0.56381756  0.43720407     0.92300
C168        C  0.46331111  0.93677306  0.56532670     0.91400
C169        C  0.46415389  0.95233825  0.43247728     0.83500
C170        C  0.03407138  0.55535556  0.56576986     0.89800
C171        C  0.47780694  0.94886301  0.72099242     0.85500
C172        C  0.01760092  0.93139982  0.75482829    -0.54700
C173        C  0.03543419  0.96871261  0.77959556     0.08400
C174        C  0.01854175  0.51875377  0.76480297     0.19400
C175        C  0.43893442  0.97627466  0.74480274    -0.55500
C176        C  0.46374338  0.51301399  0.76944426     0.08500
C177        C  0.01284038  0.48635559  0.69052650    -0.55000
C178        C  0.02929768  0.52394035  0.71381053     0.09100
H179        H  0.02946750  0.89428620  0.76083965     0.13600
H180        H  0.03269795  0.54859462  0.78511344    -0.00600
H181        H  0.40183895  0.96434029  0.74468495     0.13900
H182        H  0.01890435  0.48318883  0.65461437     0.13700
C183        C  0.05671841  0.99924024  0.22089461     0.85500
C184        C  0.07218247  0.52873251  0.25766823    -0.54700
C185        C  0.03355941  0.54766747  0.27909566     0.08400
C186        C  0.48181696  0.53310824  0.26580405     0.19400
C187        C  0.02685132  0.95928147  0.24243502    -0.55500
C188        C  0.48675464  0.97758041  0.27126300     0.08500
C189        C  0.02120239  0.52524054  0.19128005    -0.55000
C190        C  0.48046133  0.54629193  0.21408055     0.09100
H191        H  0.10927130  0.53839477  0.26529994     0.13600
H192        H  0.45064456  0.54730416  0.28375797    -0.00600
H193        H  0.03868433  0.92189087  0.24307611     0.13900
H194        H  0.02712618  0.53291646  0.15548003     0.13700
C195        C  0.46551923  0.86571391  0.34188086     0.79200
N196        N  0.45876778  0.88486770  0.38290771    -0.79100
C197        C  0.45534816  0.93314263  0.38721139     0.81700
N198        N  0.46081210  0.96314626  0.34993632    -0.79000
C199        C  0.46835117  0.94514483  0.30851686     0.81800
N200        N  0.47107650  0.89629786  0.30499146    -0.80700
O201        O  0.07264421  0.52171940  0.04998213    -0.73900
O202        O  0.48272492  0.56456839  0.94527168    -0.74900
O203        O  0.47988272  0.57054178  0.04453101    -0.63500
O204        O  0.07330325  0.52052858  0.95421825    -0.71900
O205        O  0.03147962  0.94298372  0.95778204    -0.71500
O206        O  0.44391254  0.00428388  0.05134842    -0.62800
O207        O  0.44199233  0.99645774  0.95558033    -0.75300
O208        O  0.03476943  0.94791149  0.05565890    -0.74000
Cu209      Cu  0.02879533  0.54729980  0.99792550     1.04600
Cu210      Cu  0.48646282  0.97398321  0.00692082     1.04300
C211        C  0.06679969  0.97753407  0.06857756     0.92300
C212        C  0.45223556  0.53413646  0.93059975     0.91400
C213        C  0.44881292  0.54247461  0.06202855     0.83500
C214        C  0.06141867  0.97185410  0.93968118     0.89800
C215        C  0.36416468  0.53343724  0.15381096     0.79200
N216        N  0.37991983  0.53790463  0.11067482    -0.79100
C217        C  0.42357205  0.55630093  0.10256133     0.81700
N218        N  0.45132050  0.56969172  0.13821233    -0.79000
C219        C  0.43927359  0.55947448  0.18201817     0.81800
N220        N  0.39489046  0.54169646  0.18980581    -0.80700
C221        C  0.01862269  0.65694013  0.34534204     0.79200
N222        N  0.02550720  0.63657424  0.38803574    -0.79100
C223        C  0.04021632  0.58998568  0.39460259     0.81700
N224        N  0.04635410  0.56300110  0.35826504    -0.79000
C225        C  0.03829620  0.58178467  0.31559886     0.81800
N226        N  0.02396848  0.62884299  0.30889688    -0.80700
C227        C  0.16548237  0.98636552  0.15385038     0.79200
N228        N  0.13899411  0.99000328  0.19143201    -0.79100
C229        C  0.09163226  0.97954210  0.18885326     0.81700
N230        N  0.07152145  0.96467401  0.14913733    -0.79000
C231        C  0.09576019  0.96739637  0.11054669     0.81800
N232        N  0.14288023  0.97896360  0.11290938    -0.80700
C233        C  0.35752764  0.52386045  0.84154678     0.79200
N234        N  0.38462271  0.52121762  0.80416843    -0.79100
C235        C  0.43324249  0.52841486  0.80699470     0.81700
N236        N  0.45451050  0.53787848  0.84801617    -0.79000
C237        C  0.42781904  0.54063353  0.88565594     0.81800
N238        N  0.37984816  0.53243771  0.88219430    -0.80700
C239        C  0.46852041  0.83926501  0.65398819     0.79200
N240        N  0.46332128  0.86117047  0.61172304    -0.79100
C241        C  0.45141032  0.90842901  0.60685544     0.81700
N242        N  0.44563566  0.93326631  0.64465595    -0.79000
C243        C  0.45854538  0.91387612  0.68680555     0.81800
N244        N  0.46968876  0.86636000  0.69136679    -0.80700
C245        C  0.02329126  0.64076169  0.65459538     0.79200
N246        N  0.02954230  0.60970361  0.69151411    -0.79100
C247        C  0.04784176  0.56499130  0.68605860     0.81700
N248        N  0.06139628  0.55325306  0.64393581    -0.79000
C249        C  0.04836784  0.58080622  0.60667278     0.81800
N250        N  0.02951746  0.62484796  0.61226006    -0.80700
C251        C  0.14915791  0.97402879  0.85053978     0.79200
N252        N  0.11876224  0.97176400  0.81298030    -0.79100
C253        C  0.07090194  0.96262581  0.81805615     0.81700
N254        N  0.05368148  0.95758492  0.86028146    -0.79000
C255        C  0.08329126  0.96089509  0.89749168     0.81800
N256        N  0.13041965  0.97027649  0.89239390    -0.80700
C257        C  0.00092629  0.76666558  0.69286209    -0.27300
C258        C  0.47881320  0.78734544  0.65855402    -0.15400
C259        C  0.46042172  0.75629597  0.62581443     0.35200
C260        C  0.47530946  0.70831559  0.62763932    -0.26800
C261        C  0.00300401  0.68920831  0.65848804    -0.16000
C262        C  0.01545662  0.71813502  0.69512747     0.36300
N263        N  0.04452182  0.69898229  0.73327354    -0.90200
H264        H  0.01219281  0.78954196  0.72003657     0.17400
H265        H  0.46187339  0.68515284  0.60146214     0.17400
N266        N  0.42651120  0.77324611  0.59066495    -0.89300
H267        H  0.04967345  0.72495164  0.75753471     0.34800
H268        H  0.07855406  0.69088097  0.72152234     0.39900
H269        H  0.39530328  0.75277299  0.59323827     0.39500
H270        H  0.44118547  0.76719610  0.55924031     0.34400
C271        C  0.28294550  0.98566459  0.88182607    -0.27300
C272        C  0.30576372  0.50956598  0.84055710    -0.15400
C273        C  0.27398995  0.51794936  0.80224941     0.35200
C274        C  0.22506534  0.50458720  0.80475483    -0.26800
C275        C  0.20161460  0.98477973  0.84725378    -0.16000
C276        C  0.23484670  0.97090488  0.88337508     0.36300
N277        N  0.21992942  0.94128053  0.92147645    -0.90200
H278        H  0.30788301  0.97478504  0.90967540     0.17800
H279        H  0.20051148  0.51263592  0.77590247     0.17400
N280        N  0.29100309  0.54109342  0.76144325    -0.89300
H281        H  0.24844633  0.93489089  0.94526898     0.34800
H282        H  0.21035388  0.90781910  0.90929972     0.39900
H283        H  0.30083896  0.57609483  0.76911619     0.39500
H284        H  0.26330396  0.54435829  0.73642416     0.34400
C285        C  0.23815575  0.51410268  0.19467035    -0.27300
C286        C  0.21742979  0.99573954  0.15635959    -0.15400
C287        C  0.24750803  0.98061314  0.12217545     0.35200
C288        C  0.29565807  0.99351112  0.12347978    -0.26800
C289        C  0.31595628  0.51377049  0.16027796    -0.16000
C290        C  0.28664224  0.52783398  0.19550179     0.36300
N291        N  0.30533146  0.55759061  0.23060672    -0.90200
H292        H  0.21495554  0.52655962  0.22053792     0.17400
H293        H  0.31798068  0.98230575  0.09639273     0.17400
N294        N  0.22953596  0.95227789  0.08587266    -0.89300
H295        H  0.27913823  0.56382656  0.25425818     0.34800
H296        H  0.31324524  0.59111230  0.21538410     0.39900
H297        H  0.24950348  0.92018386  0.08652419     0.39500
H298        H  0.23526084  0.97112472  0.05506648     0.34400
C299        C  0.96151483  0.77836504  0.36895902    -0.27300
C300        C  0.47348105  0.81219285  0.33999118    -0.15400
C301        C  0.49436853  0.78992494  0.30297579     0.35200
C302        C  0.50641562  0.74028070  0.30623892    -0.26800
C303        C  0.00191613  0.70835921  0.33954824    -0.16000
C304        C  0.97212371  0.72878204  0.37159491     0.36300
N305        N  0.95205886  0.69920548  0.40697974    -0.90200
H306        H  0.93938342  0.79298655  0.39463289     0.17400
H307        H  0.52370493  0.72435935  0.27809100     0.17400
N308        N  0.50470893  0.81749694  0.26239926    -0.89300
H309        H  0.91455855  0.70254076  0.40392255     0.34800
H310        H  0.96335782  0.71246292  0.43825581     0.39900
H311        H  0.48642563  0.80213948  0.23504445     0.39500
H312        H  0.54164574  0.81467788  0.25738645     0.34400
O313        O  0.55023101  0.03109519  0.45641151    -0.73900
O314        O  0.51026686  0.43536994  0.54786651    -0.74900
O315        O  0.50946085  0.44542794  0.45102846    -0.63500
O316        O  0.55471630  0.02155296  0.55380040    -0.71900
O317        O  0.98740356  0.05833767  0.54955104    -0.71500
O318        O  0.94368188  0.48200926  0.44532714    -0.62800
O319        O  0.94114176  0.47282247  0.54448897    -0.75300
O320        O  0.98719584  0.06732479  0.45492482    -0.74000
Cu321      Cu  0.53732590  0.48268139  0.50205328     1.04600
Cu322      Cu  0.96087544  0.01958106  0.49834270     1.04300
C323        C  0.52106740  0.06490305  0.44228753     0.92300
C324        C  0.96882988  0.43904292  0.56115675     0.91400
C325        C  0.97271694  0.45119154  0.42998227     0.83500
C326        C  0.52748512  0.05331028  0.56977774     0.89800
C327        C  0.98471855  0.44883332  0.71668741     0.85500
C328        C  0.52289509  0.43276514  0.75851163    -0.54700
C329        C  0.54085773  0.47029368  0.78289125     0.08400
C330        C  0.51132924  0.01936662  0.76861006     0.19400
C331        C  0.94600474  0.47642778  0.74062385    -0.55500
C332        C  0.95718494  0.01002455  0.76823823     0.08500
C333        C  0.50516328  0.98662325  0.69450969    -0.55000
C334        C  0.52185322  0.02437023  0.71753371     0.09100
H335        H  0.53433986  0.39559014  0.76502367     0.13600
H336        H  0.52540887  0.04935851  0.78876190    -0.00600
H337        H  0.90877852  0.46488403  0.74032980     0.13900
H338        H  0.51094412  0.98316992  0.65860560     0.13700
C339        C  0.55528976  0.49971479  0.22381534     0.85500
C340        C  0.56822191  0.03536970  0.26374956    -0.54700
C341        C  0.52848938  0.05343903  0.28433002     0.08400
C342        C  0.98319589  0.03048547  0.26379653     0.19400
C343        C  0.52516139  0.46062417  0.24677963    -0.55500
C344        C  0.99052993  0.47207793  0.26843333     0.08500
C345        C  0.51967514  0.03321108  0.19593969    -0.55000
C346        C  0.98177753  0.04549194  0.21241218     0.09100
H347        H  0.60495386  0.04527279  0.27264013     0.13600
H348        H  0.95196069  0.04386154  0.28218611    -0.00600
H349        H  0.53650269  0.42306109  0.24853201     0.13900
H350        H  0.52694477  0.04209993  0.16058954     0.13700
C351        C  0.97183058  0.36207414  0.34133356     0.79200
N352        N  0.96694394  0.38186454  0.38236708    -0.79100
C353        C  0.96346349  0.43033753  0.38569114     0.81700
N354        N  0.96712562  0.45956529  0.34770784    -0.79000
C355        C  0.97297262  0.44070407  0.30648510     0.81800
N356        N  0.97551514  0.39188313  0.30373091    -0.80700
O357        O  0.57087965  0.02527275  0.05212164    -0.73900
O358        O  0.97806407  0.05812113  0.94431279    -0.74900
O359        O  0.97803999  0.06562233  0.04290833    -0.63500
O360        O  0.56944557  0.01942510  0.95657057    -0.71900
O361        O  0.53528139  0.44953304  0.95836521    -0.71500
O362        O  0.94492824  0.49934200  0.04666291    -0.62800
O363        O  0.94592077  0.49632959  0.95019624    -0.75300
O364        O  0.53552930  0.45143698  0.05643056    -0.74000
Cu365      Cu  0.52638394  0.04890424  0.99975295     1.04600
Cu366      Cu  0.98925864  0.47198608  0.00162238     1.04300
C367        C  0.56730395  0.48035967  0.07111206     0.92300
C368        C  0.94784221  0.02716418  0.93041136     0.91400
C369        C  0.94728875  0.03780209  0.06125317     0.83500
C370        C  0.56652641  0.47817124  0.94193222     0.89800
C371        C  0.86398010  0.03263022  0.15457875     0.79200
N372        N  0.87904264  0.03499282  0.11109761    -0.79100
C373        C  0.92282462  0.05247038  0.10183061     0.81700
N374        N  0.95135944  0.06659189  0.13654632    -0.79000
C375        C  0.94009952  0.05788121  0.18072506     0.81800
N376        N  0.89553981  0.04139158  0.18980842    -0.80700
C377        C  0.50715808  0.16027129  0.35253177     0.79200
N378        N  0.51338489  0.13882934  0.39484831    -0.79100
C379        C  0.52975382  0.09269272  0.40059992     0.81700
N380        N  0.53846419  0.06716938  0.36388751    -0.79000
C381        C  0.53108221  0.08683652  0.32154114     0.81800
N382        N  0.51487751  0.13340126  0.31561199    -0.80700
C383        C  0.66518723  0.48466493  0.15770906     0.79200
N384        N  0.63827575  0.48880569  0.19507458    -0.79100
C385        C  0.59057658  0.47926178  0.19195574     0.81700
N386        N  0.57074912  0.46525529  0.15171900    -0.79000
C387        C  0.59546827  0.46827238  0.11333758     0.81800
N388        N  0.64294012  0.47829466  0.11641586    -0.80700
C389        C  0.85190727  0.01946141  0.84217575     0.79200
N390        N  0.87838603  0.01757473  0.80424909    -0.79100
C391        C  0.92718860  0.02399604  0.80672081     0.81700
N392        N  0.94911417  0.03175348  0.84782172    -0.79000
C393        C  0.92296466  0.03355678  0.88585919     0.81800
N394        N  0.87491779  0.02627494  0.88282627    -0.80700
C395        C  0.96861179  0.34028625  0.64826093     0.79200
N396        N  0.96393054  0.36285133  0.60622240    -0.79100
C397        C  0.95515981  0.41083260  0.60208503     0.81700
N398        N  0.95178085  0.43551370  0.64021454    -0.79000
C399        C  0.96422095  0.41503719  0.68197525     0.81800
N400        N  0.97242841  0.36698052  0.68591240    -0.80700
C401        C  0.52303891  0.14114422  0.65718912     0.79200
N402        N  0.52713430  0.11034173  0.69458357    -0.79100
C403        C  0.54239670  0.06436241  0.68955912     0.81700
N404        N  0.55527751  0.05132678  0.64765029    -0.79000
C405        C  0.54339614  0.07877377  0.61011345     0.81800
N406        N  0.52745964  0.12398407  0.61507832    -0.80700
C407        C  0.65380655  0.48489220  0.85174472     0.79200
N408        N  0.62362800  0.47803615  0.81489116    -0.79100
C409        C  0.57688132  0.46513602  0.82077641     0.81700
N410        N  0.56033165  0.46038276  0.86325030    -0.79000
C411        C  0.58960824  0.46760020  0.89998778     0.81800
N412        N  0.63587504  0.48068481  0.89403705    -0.80700
C413        C  0.51220733  0.26998071  0.69167434    -0.27300
C414        C  0.97697881  0.28794279  0.65240034    -0.15400
C415        C  0.95852996  0.25743454  0.61917664     0.35200
C416        C  0.97180486  0.20890822  0.62149333    -0.26800
C417        C  0.50691203  0.19119180  0.66012913    -0.16000
C418        C  0.52381620  0.22067959  0.69483667     0.36300
N419        N  0.55382664  0.20099512  0.73210383    -0.90200
H420        H  0.52615340  0.29306447  0.71765714     0.17400
H421        H  0.95815945  0.18602997  0.59517127     0.17400
N422        N  0.92631668  0.27542844  0.58303874    -0.89300
H423        H  0.56264028  0.22760964  0.75489409     0.34800
H424        H  0.58618358  0.18963143  0.71888032     0.39900
H425        H  0.89436570  0.25599332  0.58458570     0.39500
H426        H  0.94187068  0.26879589  0.55213025     0.34400
C427        C  0.77837903  0.53740179  0.87572943    -0.27300
C428        C  0.79984841  0.00656426  0.84168931    -0.15400
C429        C  0.76726054  0.01819672  0.80469353     0.35200
C430        C  0.71816230  0.00563733  0.80763621    -0.26800
C431        C  0.70486797  0.50032533  0.84633813    -0.16000
C432        C  0.72956187  0.52646315  0.87999373     0.36300
N433        N  0.70531988  0.54253112  0.91871842    -0.90200
H434        H  0.79615171  0.55697993  0.90246825     0.17800
H435        H  0.69303755  0.01585232  0.77976329     0.17400
N436        N  0.78368269  0.04387150  0.76492849    -0.89300
H437        H  0.70794448  0.58000224  0.91900950     0.34800
H438        H  0.72330264  0.52789085  0.94805049     0.39900
H439        H  0.79471797  0.07786128  0.77469094     0.39500
H440        H  0.75534787  0.04960818  0.74084737     0.34400
C441        C  0.73716518  0.02310819  0.19588568    -0.27300
C442        C  0.71729666  0.49327115  0.16027433    -0.15400
C443        C  0.74795010  0.47128983  0.13014985     0.35200
C444        C  0.79621726  0.48419341  0.12952185    -0.26800
C445        C  0.81510498  0.01555825  0.16243800    -0.16000
C446        C  0.78629463  0.03450426  0.19591788     0.36300
N447        N  0.80627489  0.06675543  0.22828668    -0.90200
H448        H  0.71435786  0.03909786  0.22027570     0.17400
H449        H  0.81917628  0.46774358  0.10549249     0.17400
N450        N  0.73026791  0.43576723  0.10010146    -0.89300
H451        H  0.78023915  0.07677681  0.25087569     0.34800
H452        H  0.81596283  0.09823558  0.21036487     0.39900
H453        H  0.75026566  0.40404853  0.10692569     0.39500
H454        H  0.73636463  0.44786579  0.06671909     0.34400
C455        C  0.45594715  0.28420474  0.37854295    -0.27300
C456        C  0.97928010  0.30877957  0.33935206    -0.15400
C457        C  0.00546645  0.28747623  0.30495837     0.35200
C458        C  0.01583369  0.23762771  0.30777041    -0.26800
C459        C  0.49037446  0.21193478  0.34728767    -0.16000
C460        C  0.46615918  0.23451058  0.38215249     0.36300
N461        N  0.45159895  0.20725558  0.42160623    -0.90200
H462        H  0.43845210  0.30033959  0.40646894     0.17400
H463        H  0.03724317  0.22228608  0.28193463     0.17400
N464        N  0.02342232  0.31635154  0.26803267    -0.89300
H465        H  0.41429319  0.21104651  0.42366340     0.34800
H466        H  0.46781911  0.22206816  0.45032480     0.39900
H467        H  0.00961038  0.30298797  0.23763458     0.39500
H468        H  0.06089501  0.31239872  0.26867117     0.34400
O469        O  0.55834025  0.53231825  0.45536707    -0.73900
O470        O  0.50537026  0.93226528  0.54964371    -0.74900
O471        O  0.50481901  0.94249901  0.45237951    -0.63500
O472        O  0.56171954  0.52340067  0.55319620    -0.71900
O473        O  0.99122585  0.56173022  0.54894463    -0.71500
O474        O  0.94130319  0.97949523  0.44433723    -0.62800
O475        O  0.93806243  0.96923364  0.54396453    -0.75300
O476        O  0.99012650  0.56993137  0.45387182    -0.74000
Cu477      Cu  0.53117431  0.98042190  0.50324852     1.04600
Cu478      Cu  0.96400302  0.52271587  0.49832956     1.04300
C479        C  0.52984182  0.56635326  0.44062538     0.92300
C480        C  0.96610681  0.93590049  0.56092417     0.91400
C481        C  0.97079272  0.94930164  0.42861878     0.83500
C482        C  0.53517339  0.55608987  0.56879859     0.89800
C483        C  0.98032444  0.94830809  0.71692725     0.85500
C484        C  0.51499075  0.93198142  0.75888035    -0.54700
C485        C  0.53336608  0.96936646  0.78306042     0.08400
C486        C  0.51924140  0.52028517  0.76772815     0.19400
C487        C  0.94097125  0.97473748  0.74083809    -0.55500
C488        C  0.96320697  0.51167694  0.76757734     0.08500
C489        C  0.51536173  0.48698364  0.69372637    -0.55000
C490        C  0.53128993  0.52487180  0.71690131     0.09100
H491        H  0.52646391  0.89479934  0.76529705     0.13600
H492        H  0.53283692  0.55040512  0.78798431    -0.00600
H493        H  0.90414511  0.96199482  0.74052128     0.13900
H494        H  0.52197030  0.48320718  0.65797559     0.13700
C495        C  0.55423160  0.00178111  0.22530578     0.85500
C496        C  0.57040832  0.53357510  0.26154968    -0.54700
C497        C  0.53146581  0.55258700  0.28247200     0.08400
C498        C  0.98380997  0.52777540  0.26334586     0.19400
C499        C  0.52443700  0.96192379  0.24733378    -0.55500
C500        C  0.98975339  0.97475234  0.26709667     0.08500
C501        C  0.52066161  0.53116958  0.19439864    -0.55000
C502        C  0.98150290  0.54067098  0.21159990     0.09100
H503        H  0.60744519  0.54288879  0.26987099     0.13600
H504        H  0.95282720  0.54174287  0.28171126    -0.00600
H505        H  0.53654967  0.92459320  0.24877990     0.13900
H506        H  0.52714059  0.53882136  0.15868013     0.13700
C507        C  0.97195493  0.86245655  0.33754579     0.79200
N508        N  0.96640097  0.88119829  0.37900152    -0.79100
C509        C  0.96240653  0.92949867  0.38349178     0.81700
N510        N  0.96602809  0.95969880  0.34611994    -0.79000
C511        C  0.97252166  0.94200519  0.30444913     0.81800
N512        N  0.97575345  0.89326691  0.30059624    -0.80700
O513        O  0.57102937  0.52259548  0.05261923    -0.73900
O514        O  0.98388288  0.56608018  0.94363588    -0.74900
O515        O  0.98112249  0.57012161  0.04311319    -0.63500
O516        O  0.57271251  0.51984988  0.95722211    -0.71900
O517        O  0.53071064  0.94983257  0.96050178    -0.71500
O518        O  0.94283905  0.99443402  0.04917088    -0.62800
O519        O  0.94187133  0.98756193  0.95292054    -0.75300
O520        O  0.53404503  0.95496097  0.05840152    -0.74000
Cu521      Cu  0.52760826  0.54702266  0.99999953     1.04600
Cu522      Cu  0.98653140  0.96570430  0.00436203     1.04300
C523        C  0.56660700  0.98370800  0.07189756     0.92300
C524        C  0.95321434  0.53609678  0.92848830     0.91400
C525        C  0.94957001  0.54217247  0.06010445     0.83500
C526        C  0.56173183  0.97749994  0.94242777     0.89800
C527        C  0.86400445  0.53526284  0.15184318     0.79200
N528        N  0.87991319  0.53896716  0.10865371    -0.79100
C529        C  0.92443507  0.55569055  0.10084240     0.81700
N530        N  0.95271427  0.56743881  0.13668408    -0.79000
C531        C  0.94056184  0.55679534  0.18031647     0.81800
N532        N  0.89529907  0.54132317  0.18796197    -0.80700
C533        C  0.51581542  0.66054800  0.35059273     0.79200
N534        N  0.52395347  0.63960605  0.39283466    -0.79100
C535        C  0.53901310  0.59314347  0.39854433     0.81700
N536        N  0.54493640  0.56682466  0.36175369    -0.79000
C537        C  0.53589715  0.58616292  0.31944805     0.81800
N538        N  0.52070544  0.63305538  0.31363345    -0.80700
C539        C  0.66439527  0.98746141  0.15939103     0.79200
N540        N  0.63739563  0.99121644  0.19673375    -0.79100
C541        C  0.58968440  0.98205221  0.19321567     0.81700
N542        N  0.56999513  0.96863110  0.15268094    -0.79000
C543        C  0.59478439  0.97232221  0.11438390     0.81800
N544        N  0.64227282  0.98217213  0.11779870    -0.80700
C545        C  0.85773948  0.53093570  0.83946072     0.79200
N546        N  0.88462320  0.52502513  0.80229806    -0.79100
C547        C  0.93365867  0.52872694  0.80512980     0.81700
N548        N  0.95563258  0.53755908  0.84598523    -0.79000
C549        C  0.92926359  0.54327658  0.88342416     0.81800
N550        N  0.88077532  0.53898297  0.87991547    -0.80700
C551        C  0.96685712  0.83877990  0.64968010     0.79200
N552        N  0.96258080  0.86069456  0.60736758    -0.79100
C553        C  0.95302070  0.90839797  0.60238598     0.81700
N554        N  0.94892376  0.93369284  0.64006209    -0.79000
C555        C  0.96095811  0.91394736  0.68223787     0.81800
N556        N  0.96969208  0.86602188  0.68696568    -0.80700
C557        C  0.52773265  0.64186834  0.65782881     0.79200
N558        N  0.53359788  0.61072089  0.69472130    -0.79100
C559        C  0.55058294  0.56554618  0.68904651     0.81700
N560        N  0.56351062  0.55352911  0.64678397    -0.79000
C561        C  0.55070525  0.58128872  0.60959887     0.81800
N562        N  0.53293648  0.62576844  0.61539135    -0.80700
C563        C  0.64820235  0.97365381  0.85172252     0.79200
N564        N  0.61709437  0.97042341  0.81486379    -0.79100
C565        C  0.56911596  0.96342437  0.82105014     0.81700
N566        N  0.55248206  0.96120667  0.86356807    -0.79000
C567        C  0.58280228  0.96539056  0.90010255     0.81800
N568        N  0.63013778  0.97291952  0.89396607    -0.80700
C569        C  0.50875304  0.76866495  0.69482553    -0.27300
C570        C  0.97501686  0.78648861  0.65443800    -0.15400
C571        C  0.95934453  0.75628755  0.61984832     0.35200
C572        C  0.97351372  0.70814995  0.62217340    -0.26800
C573        C  0.50786898  0.69036993  0.66194600    -0.16000
C574        C  0.52346313  0.72024476  0.69671847     0.36300
N575        N  0.55595835  0.70227457  0.73257213    -0.90200
H576        H  0.52252092  0.79204509  0.72065014     0.17400
H577        H  0.96225191  0.68574700  0.59458970     0.17400
N578        N  0.92930080  0.77426401  0.58207032    -0.89300
H579        H  0.53974988  0.70718000  0.76350132     0.34800
H580        H  0.58711298  0.72300316  0.73193361     0.39900
H581        H  0.89763949  0.75427335  0.58133946     0.39500
H582        H  0.94719450  0.76849101  0.55217465     0.34400
C583        C  0.78264590  0.98181481  0.88024755    -0.27300
C584        C  0.80438709  0.52295978  0.83855314    -0.15400
C585        C  0.77931920  0.49858170  0.80385531     0.35200
C586        C  0.73003394  0.48781000  0.80794202    -0.26800
C587        C  0.70091136  0.98194436  0.84693274    -0.16000
C588        C  0.73419885  0.96885734  0.88312756     0.36300
N589        N  0.71892600  0.94196326  0.92278178    -0.90200
H590        H  0.80745019  0.97172673  0.90842674     0.17800
H591        H  0.71185477  0.46808873  0.78154501     0.17400
N592        N  0.80380615  0.48322088  0.76506847    -0.89300
H593        H  0.74755535  0.93596957  0.94651975     0.34800
H594        H  0.70807763  0.90812858  0.91245649     0.39900
H595        H  0.78620877  0.49869219  0.73589855     0.39500
H596        H  0.80080291  0.44584238  0.76398943     0.34400
C597        C  0.73638966  0.52557731  0.19136591    -0.27300
C598        C  0.71678396  0.99386304  0.16271152    -0.15400
C599        C  0.74666315  0.97215447  0.13178829     0.35200
C600        C  0.79534689  0.98313368  0.13198636    -0.26800
C601        C  0.81478467  0.51855002  0.15861270    -0.16000
C602        C  0.78500474  0.53882793  0.19059137     0.36300
N603        N  0.80354062  0.57422114  0.22057788    -0.90200
H604        H  0.71289951  0.54230695  0.21473750     0.17400
H605        H  0.81756862  0.96716916  0.10707832     0.17400
N606        N  0.72775776  0.93904058  0.09989478    -0.89300
H607        H  0.77687607  0.58534134  0.24204323     0.34800
H608        H  0.81254022  0.60453894  0.20055765     0.39900
H609        H  0.74639337  0.90632364  0.10533814     0.39500
H610        H  0.73456948  0.95256222  0.06709933     0.34400
C611        C  0.46285516  0.78283043  0.37834191    -0.27300
C612        C  0.97951897  0.80909968  0.33463167    -0.15400
C613        C  0.00696844  0.78826942  0.30080904     0.35200
C614        C  0.01769007  0.73831889  0.30348042    -0.26800
C615        C  0.49831082  0.71185306  0.34588042    -0.16000
C616        C  0.47481553  0.73361322  0.38164829     0.36300
N617        N  0.46255077  0.70595715  0.42167970    -0.90200
H618        H  0.44569286  0.79821437  0.40682948     0.17400
H619        H  0.04018407  0.72336641  0.27825802     0.17400
N620        N  0.02583718  0.81773293  0.26473919    -0.89300
H621        H  0.42530953  0.70851426  0.42499058     0.34800
H622        H  0.47932371  0.72131578  0.44985005     0.39900
H623        H  0.01307930  0.80464344  0.23385059     0.39500
H624        H  0.06334236  0.81402142  0.26635785     0.34400
loop_ 
_geom_bond_atom_site_label_1 
_geom_bond_atom_site_label_2 
_geom_bond_distance 
_geom_bond_site_symmetry_2 
_ccdc_geom_bond_type 
O1           C11   1.279       .  A
O1         Cu165   2.012   1_545  S
O2          C324   1.281   1_455  A
O2           Cu9   2.026       .  S
O3          C325   1.275   1_455  A
O3           Cu9   1.992       .  S
O4           C14   1.277       .  A
O4         Cu165   2.022   1_545  S
O5          C326   1.280       .  A
O5          Cu10   2.015       .  S
O6           C13   1.281       .  A
O6         Cu166   2.041       .  S
O7           C12   1.278       .  A
O7         Cu166   2.027       .  S
O8          C323   1.271       .  A
O8          Cu10   1.973       .  S
Cu9         O157   2.023       .  S
Cu9         O160   2.018       .  S
Cu9        Cu478   2.375   1_455  S
Cu10        O162   2.045   1_545  S
Cu10        O163   2.027   1_545  S
Cu10       Cu477   2.375   1_545  S
C11         O320   1.271   1_455  A
C11          C67   1.446       .  S
C12         O314   1.279       .  A
C12          C85   1.472       .  S
C13         O315   1.276       .  A
C13          C41   1.471       .  S
C14         O317   1.280   1_455  A
C14          C93   1.471       .  S
C15          C19   1.524       .  S
C15         C328   1.547       .  S
C15         C489   1.508       .  S
C15          C87   1.511       .  S
C16         C327   1.548   1_455  S
C16          H23   1.085       .  S
C16          C17   1.381       .  D
C17         C174   1.549       .  S
C17          C97   1.472       .  S
C18          C22   1.550       .  S
C18         C173   1.551   1_545  S
C18         C332   1.564   1_455  S
C18          H24   1.111       .  S
C19          H25   1.086       .  S
C19         C176   1.366       .  D
C20         C330   1.559       .  S
C20         C175   1.370   1_545  D
C20          C79   1.493       .  S
C21         C483   1.508   1_455  S
C21          H26   1.084       .  S
C21          C22   1.350   1_565  D
C22          C91   1.489       .  S
C27          C31   1.522       .  S
C27         C184   1.539       .  S
C27         C189   1.514       .  S
C27          C73   1.505       .  S
C28         C183   1.534   1_545  S
C28          H35   1.086       .  S
C28          C29   1.376       .  D
C29         C342   1.557   1_455  S
C29          C69   1.462       .  S
C30          C34   1.550       .  S
C30         C341   1.555       .  S
C30         C188   1.560   1_545  S
C30          H36   1.111       .  S
C31          H37   1.087       .  S
C31         C344   1.363   1_455  D
C32         C186   1.558       .  S
C32         C343   1.364       .  D
C32          C43   1.496       .  S
C33         C183   1.513   1_545  S
C33          H38   1.087       .  S
C33         C346   1.353   1_455  D
C34         C345   1.348       .  D
C34          C63   1.486       .  S
C39         C144   1.510       .  S
C39          N40   1.363       .  A
C39          N44   1.365       .  A
N40          C41   1.360       .  A
C41          N42   1.362       .  A
N42          C43   1.360       .  A
C43          N44   1.367       .  A
O45         C211   1.277   1_545  A
O45         Cu53   2.006   1_554  S
O46          C56   1.281       .  A
O46        Cu365   2.040       .  S
O47          C57   1.278       .  A
O47        Cu365   2.025   1_554  S
O48         C214   1.273   1_545  A
O48         Cu53   1.972       .  S
O49          C58   1.277       .  A
O49        Cu366   2.004   1_456  S
O50         C213   1.279       .  A
O50         Cu54   2.016       .  S
O51         C212   1.275       .  A
O51         Cu54   1.989   1_556  S
O52          C55   1.277       .  A
O52        Cu366   2.021   1_455  S
Cu53        O358   2.022   1_455  S
Cu53        O359   2.021   1_456  S
Cu53       Cu522   2.377   1_446  S
Cu54        O361   2.016   1_554  S
Cu54        O364   2.019       .  S
Cu54       Cu521   2.375   1_554  S
C55         O201   1.280       .  A
C55          C75   1.470       .  S
C56         O207   1.275   1_545  A
C56          C81   1.468       .  S
C57         O206   1.278       .  A
C57          C61   1.468       .  S
C58         O204   1.274       .  A
C58          C99   1.450       .  S
C59         C133   1.464       .  S
C59          N60   1.359       .  A
C59          N64   1.363       .  A
N60          C61   1.345       .  A
C61          N62   1.346       .  A
N62          C63   1.365       .  A
C63          N64   1.356       .  A
C65         C147   1.494       .  S
C65          N66   1.360       .  A
C65          N70   1.366       .  A
N66          C67   1.356       .  A
C67          N68   1.348       .  A
N68          C69   1.347       .  A
C69          N70   1.366       .  A
C71         C130   1.470       .  S
C71          N72   1.361       .  A
C71          N76   1.364       .  A
N72          C73   1.352       .  A
C73          N74   1.361       .  A
N74          C75   1.344       .  A
C75          N76   1.353       .  A
C77         C116   1.492       .  S
C77          N78   1.362       .  A
C77          N82   1.360       .  A
N78          C79   1.366       .  A
C79          N80   1.361       .  A
N80          C81   1.362       .  A
C81          N82   1.357       .  A
C83         C102   1.469       .  S
C83          N84   1.363       .  A
C83          N88   1.360       .  A
N84          C85   1.352       .  A
C85          N86   1.349       .  A
N86          C87   1.365       .  A
C87          N88   1.351       .  A
C89         C105   1.466       .  S
C89          N90   1.365       .  A
C89          N94   1.359       .  A
N90          C91   1.358       .  A
C91          N92   1.364       .  A
N92          C93   1.346       .  A
C93          N94   1.348       .  A
C95         C119   1.498       .  S
C95          N96   1.370       .  A
C95         N100   1.360       .  A
N96          C97   1.369       .  A
C97          N98   1.350       .  A
N98          C99   1.350       .  A
C99         N100   1.352       .  A
C101        C106   1.402       .  A
C101        C414   1.405   1_455  A
C101        H108   1.083       .  S
C102        C103   1.407       .  A
C102        C413   1.407       .  A
C103        C104   1.389       .  A
C103        N110   1.434       .  S
C104        C417   1.402       .  A
C104        H109   1.084       .  S
C105        C106   1.408       .  A
C105        C416   1.403   1_455  A
C106        N107   1.438       .  S
N107        H111   1.046       .  S
N107        H112   1.046       .  S
N110        H113   1.046       .  S
N110        H114   1.046       .  S
C115        C120   1.403       .  A
C115        C272   1.404       .  A
C115        H122   1.083       .  S
C116        C117   1.414       .  A
C116        C271   1.402   1_545  A
C117        C118   1.416       .  A
C117        N124   1.437       .  S
C118        C275   1.408   1_545  A
C118        H123   1.083       .  S
C119        C120   1.418       .  A
C119        C274   1.409       .  A
C120        N121   1.439       .  S
N121        H125   1.045       .  S
N121        H126   1.046       .  S
N124        H127   1.046       .  S
N124        H128   1.045       .  S
C129        C134   1.400       .  A
C129        C286   1.408   1_545  A
C129        H136   1.083       .  S
C130        C131   1.407       .  A
C130        C285   1.406       .  A
C131        C132   1.390       .  A
C131        N138   1.434       .  S
C132        C289   1.403       .  A
C132        H137   1.084       .  S
C133        C134   1.405       .  A
C133        C288   1.402   1_545  A
C134        N135   1.432       .  S
N135        H139   1.046       .  S
N135        H140   1.045       .  S
N138        H141   1.046       .  S
N138        H142   1.046       .  S
C143        C148   1.404       .  A
C143        C456   1.405       .  A
C143        H150   1.084       .  S
C144        C145   1.422       .  A
C144        C455   1.408       .  A
C145        C146   1.418       .  A
C145        N152   1.437       .  S
C146        C459   1.407       .  A
C146        H151   1.083       .  S
C147        C148   1.414   1_455  A
C147        C458   1.405       .  A
C148        N149   1.433       .  S
N149        H153   1.046       .  S
N149        H154   1.046       .  S
N152        H155   1.045       .  S
N152        H156   1.046       .  S
O157        C167   1.280       .  A
O158        C480   1.280   1_455  A
O158       Cu165   2.021       .  S
O159        C481   1.276   1_455  A
O159       Cu165   2.001       .  S
O160        C170   1.276       .  A
O161        C482   1.279       .  A
O161       Cu166   2.011       .  S
O162        C169   1.282       .  A
O163        C168   1.278       .  A
O164        C479   1.273       .  A
O164       Cu166   1.976       .  S
Cu165      Cu322   2.375   1_465  S
Cu166      Cu321   2.375       .  S
C167        O476   1.272   1_455  A
C167        C223   1.454       .  S
C168        O470   1.281       .  A
C168        C241   1.476       .  S
C169        O471   1.274       .  A
C169        C197   1.471       .  S
C170        O473   1.280   1_455  A
C170        C249   1.468       .  S
C171        C484   1.545       .  S
C171        C333   1.510       .  S
C171        C175   1.527       .  S
C171        C243   1.518       .  S
C172        C483   1.548   1_455  S
C172        H179   1.085       .  S
C172        C173   1.380       .  D
C173        C253   1.475       .  S
C174        C178   1.544       .  S
C174        C488   1.557   1_455  S
C174        H180   1.111       .  S
C175        H181   1.086       .  S
C176        C486   1.560       .  S
C176        C235   1.494       .  S
C177        C327   1.512   1_455  S
C177        H182   1.085       .  S
C177        C178   1.350       .  D
C178        C247   1.483       .  S
C183        C187   1.524       .  S
C183        C229   1.496       .  S
C184        H191   1.086       .  S
C184        C185   1.378       .  D
C185        C498   1.556   1_455  S
C185        C225   1.468       .  S
C186        C497   1.557       .  S
C186        C190   1.550       .  S
C186        H192   1.111       .  S
C187        H193   1.087       .  S
C187        C500   1.361   1_455  D
C188        C499   1.363       .  D
C188        C199   1.498       .  S
C189        H194   1.086       .  S
C189        C502   1.351   1_455  D
C190        C501   1.351       .  D
C190        C219   1.488       .  S
C195        C300   1.507       .  S
C195        N196   1.361       .  A
C195        N200   1.364       .  A
N196        C197   1.357       .  A
C197        N198   1.363       .  A
N198        C199   1.362       .  A
C199        N200   1.369       .  A
O201       Cu209   2.021   1_554  S
O202        C212   1.281       .  A
O202       Cu521   2.038       .  S
O203        C213   1.278       .  A
O203       Cu521   2.025   1_554  S
O204       Cu209   1.983       .  S
O205        C214   1.277       .  A
O205       Cu522   2.009   1_456  S
O206       Cu210   2.005   1_545  S
O207       Cu210   1.990   1_556  S
O208        C211   1.278       .  A
O208       Cu522   2.022   1_455  S
Cu209       O514   2.036   1_455  S
Cu209       O515   2.031   1_456  S
Cu209      Cu366   2.375   1_456  S
Cu210       O517   2.007   1_554  S
Cu210       O520   2.022       .  S
Cu210      Cu365   2.376   1_564  S
C211        C231   1.464       .  S
C212        C237   1.467       .  S
C213        C217   1.472       .  S
C214        C255   1.448       .  S
C215        C289   1.468       .  S
C215        N216   1.361       .  A
C215        N220   1.364       .  A
N216        C217   1.347       .  A
C217        N218   1.347       .  A
N218        C219   1.364       .  A
C219        N220   1.358       .  A
C221        C303   1.500       .  S
C221        N222   1.362       .  A
C221        N226   1.367       .  A
N222        C223   1.358       .  A
C223        N224   1.349       .  A
N224        C225   1.349       .  A
C225        N226   1.368       .  A
C227        C286   1.469       .  S
C227        N228   1.360       .  A
C227        N232   1.363       .  A
N228        C229   1.351       .  A
C229        N230   1.360       .  A
N230        C231   1.343       .  A
C231        N232   1.352       .  A
C233        C272   1.496       .  S
C233        N234   1.362       .  A
C233        N238   1.359       .  A
N234        C235   1.368       .  A
C235        N236   1.362       .  A
N236        C237   1.362       .  A
C237        N238   1.356       .  A
C239        C258   1.469       .  S
C239        N240   1.363       .  A
C239        N244   1.361       .  A
N240        C241   1.352       .  A
C241        N242   1.350       .  A
N242        C243   1.365       .  A
C243        N244   1.354       .  A
C245        C261   1.466       .  S
C245        N246   1.363       .  A
C245        N250   1.358       .  A
N246        C247   1.357       .  A
C247        N248   1.363       .  A
N248        C249   1.346       .  A
C249        N250   1.347       .  A
C251        C275   1.497       .  S
C251        N252   1.370       .  A
C251        N256   1.357       .  A
N252        C253   1.369       .  A
C253        N254   1.352       .  A
N254        C255   1.352       .  A
C255        N256   1.351       .  A
C257        C570   1.406   1_455  A
C257        C262   1.403       .  A
C257        H264   1.083       .  S
C258        C569   1.406       .  A
C258        C259   1.408       .  A
C259        C260   1.391       .  A
C259        N266   1.433       .  S
C260        C573   1.402       .  A
C260        H265   1.084       .  S
C261        C572   1.402   1_455  A
C261        C262   1.409       .  A
C262        N263   1.438       .  S
N263        H267   1.045       .  S
N263        H268   1.046       .  S
N266        H269   1.046       .  S
N266        H270   1.046       .  S
C271        C276   1.404       .  A
C271        H278   1.084       .  S
C272        C273   1.415       .  A
C273        C274   1.417       .  A
C273        N280   1.437       .  S
C274        H279   1.083       .  S
C275        C276   1.419       .  A
C276        N277   1.439       .  S
N277        H281   1.046       .  S
N277        H282   1.045       .  S
N280        H283   1.046       .  S
N280        H284   1.045       .  S
C285        C290   1.404       .  A
C285        H292   1.083       .  S
C286        C287   1.409       .  A
C287        C288   1.389       .  A
C287        N294   1.434       .  S
C288        H293   1.084       .  S
C289        C290   1.410       .  A
C290        N291   1.438       .  S
N291        H295   1.046       .  S
N291        H296   1.046       .  S
N294        H297   1.045       .  S
N294        H298   1.046       .  S
C299        C612   1.405       .  A
C299        C304   1.405       .  A
C299        H306   1.084       .  S
C300        C611   1.407       .  A
C300        C301   1.418       .  A
C301        C302   1.416       .  A
C301        N308   1.431       .  S
C302        C615   1.408       .  A
C302        H307   1.083       .  S
C303        C614   1.407       .  A
C303        C304   1.414   1_455  A
C304        N305   1.433       .  S
N305        H309   1.046       .  S
N305        H310   1.046       .  S
N308        H311   1.046       .  S
N308        H312   1.046       .  S
O313        C323   1.280       .  A
O313       Cu477   2.017   1_545  S
O314       Cu321   2.015       .  S
O315       Cu321   1.999       .  S
O316        C326   1.275       .  A
O316       Cu477   2.011   1_545  S
O317       Cu322   2.014       .  S
O318        C325   1.280       .  A
O318       Cu478   2.035       .  S
O319        C324   1.277       .  A
O319       Cu478   2.024       .  S
O320       Cu322   1.969       .  S
Cu321       O469   2.012       .  S
Cu321       O472   2.025       .  S
Cu322       O474   2.043   1_545  S
Cu322       O475   2.021   1_545  S
C323        C379   1.451       .  S
C324        C397   1.473       .  S
C325        C353   1.466       .  S
C326        C405   1.466       .  S
C327        C331   1.528       .  S
C327        C399   1.518       .  S
C328        H335   1.085       .  S
C328        C329   1.380       .  D
C329        C486   1.549       .  S
C329        C409   1.471       .  S
C330        C485   1.549   1_545  S
C330        C334   1.544       .  S
C330        H336   1.111       .  S
C331        H337   1.086       .  S
C331        C488   1.367       .  D
C332        C487   1.367   1_545  D
C332        C391   1.496       .  S
C333        H338   1.084       .  S
C333        C334   1.351   1_565  D
C334        C403   1.487       .  S
C339        C496   1.537       .  S
C339        C501   1.514       .  S
C339        C343   1.529       .  S
C339        C385   1.508       .  S
C340        C495   1.541       .  S
C340        H347   1.085       .  S
C340        C341   1.381       .  D
C341        C381   1.468       .  S
C342        C346   1.551       .  S
C342        C500   1.557   1_545  S
C342        H348   1.111       .  S
C343        H349   1.087       .  S
C344        C498   1.558       .  S
C344        C355   1.490       .  S
C345        C495   1.512       .  S
C345        H350   1.087       .  S
C346        C375   1.487       .  S
C351        C456   1.499       .  S
C351        N352   1.361       .  A
C351        N356   1.361       .  A
N352        C353   1.359       .  A
C353        N354   1.361       .  A
N354        C355   1.359       .  A
C355        N356   1.365       .  A
O357        C523   1.280   1_545  A
O357       Cu365   2.022   1_554  S
O358        C368   1.278       .  A
O359        C369   1.278       .  A
O360        C526   1.273   1_545  A
O360       Cu365   1.978       .  S
O361        C370   1.279       .  A
O362        C525   1.278       .  A
O362       Cu366   2.014       .  S
O363        C524   1.275       .  A
O363       Cu366   1.989   1_556  S
O364        C367   1.277       .  A
C367        O513   1.280       .  A
C367        C387   1.468       .  S
C368        O519   1.276   1_545  A
C368        C393   1.462       .  S
C369        O518   1.278   1_545  A
C369        C373   1.469       .  S
C370        O516   1.273       .  A
C370        C411   1.454       .  S
C371        C445   1.467       .  S
C371        N372   1.362       .  A
C371        N376   1.364       .  A
N372        C373   1.348       .  A
C373        N374   1.345       .  A
N374        C375   1.362       .  A
C375        N376   1.357       .  A
C377        C459   1.506       .  S
C377        N378   1.362       .  A
C377        N382   1.369       .  A
N378        C379   1.358       .  A
C379        N380   1.348       .  A
N380        C381   1.347       .  A
C381        N382   1.368       .  A
C383        C442   1.470       .  S
C383        N384   1.363       .  A
C383        N388   1.362       .  A
N384        C385   1.355       .  A
C385        N386   1.362       .  A
N386        C387   1.346       .  A
C387        N388   1.352       .  A
C389        C428   1.494       .  S
C389        N390   1.364       .  A
C389        N394   1.357       .  A
N390        C391   1.370       .  A
C391        N392   1.361       .  A
N392        C393   1.362       .  A
C393        N394   1.353       .  A
C395        C414   1.471       .  S
C395        N396   1.364       .  A
C395        N400   1.363       .  A
N396        C397   1.353       .  A
C397        N398   1.348       .  A
N398        C399   1.363       .  A
C399        N400   1.353       .  A
C401        C417   1.465       .  S
C401        N402   1.366       .  A
C401        N406   1.358       .  A
N402        C403   1.359       .  A
C403        N404   1.362       .  A
N404        C405   1.344       .  A
C405        N406   1.345       .  A
C407        C431   1.499       .  S
C407        N408   1.367       .  A
C407        N412   1.360       .  A
N408        C409   1.367       .  A
C409        N410   1.351       .  A
N410        C411   1.352       .  A
C411        N412   1.356       .  A
C413        C418   1.404       .  A
C413        H420   1.083       .  S
C414        C415   1.409       .  A
C415        C416   1.394       .  A
C415        N422   1.434       .  S
C416        H421   1.084       .  S
C417        C418   1.408       .  A
C418        N419   1.438       .  S
N419        H423   1.046       .  S
N419        H424   1.045       .  S
N422        H425   1.046       .  S
N422        H426   1.046       .  S
C427        C584   1.406       .  A
C427        C432   1.403       .  A
C427        H434   1.084       .  S
C428        C583   1.404   1_545  A
C428        C429   1.414       .  A
C429        C430   1.417       .  A
C429        N436   1.437       .  S
C430        C587   1.409   1_545  A
C430        H435   1.083       .  S
C431        C586   1.408       .  A
C431        C432   1.415       .  A
C432        N433   1.433       .  S
N433        H437   1.046       .  S
N433        H438   1.046       .  S
N436        H439   1.046       .  S
N436        H440   1.045       .  S
C441        C598   1.405   1_545  A
C441        C446   1.405       .  A
C441        H448   1.083       .  S
C442        C597   1.405       .  A
C442        C443   1.408       .  A
C443        C444   1.393       .  A
C443        N450   1.433       .  S
C444        C601   1.401       .  A
C444        H449   1.084       .  S
C445        C600   1.401   1_545  A
C445        C446   1.411       .  A
C446        N447   1.438       .  S
N447        H451   1.046       .  S
N447        H452   1.045       .  S
N450        H453   1.046       .  S
N450        H454   1.046       .  S
C455        C460   1.407       .  A
C455        H462   1.084       .  S
C456        C457   1.417   1_655  A
C457        C458   1.411       .  A
C457        N464   1.432       .  S
C458        H463   1.084       .  S
C459        C460   1.416       .  A
C460        N461   1.433       .  S
N461        H465   1.046       .  S
N461        H466   1.046       .  S
N464        H467   1.045       .  S
N464        H468   1.046       .  S
O469        C479   1.278       .  A
O470       Cu477   2.027       .  S
O471       Cu477   1.991       .  S
O472        C482   1.278       .  A
O473       Cu478   2.011       .  S
O474        C481   1.281       .  A
O475        C480   1.277       .  A
O476       Cu478   1.977       .  S
C479        C535   1.450       .  S
C480        C553   1.472       .  S
C481        C509   1.472       .  S
C482        C561   1.471       .  S
C483        C487   1.524       .  S
C483        C555   1.517       .  S
C484        H491   1.085       .  S
C484        C485   1.378       .  D
C485        C565   1.470       .  S
C486        C490   1.547       .  S
C486        H492   1.111       .  S
C487        H493   1.086       .  S
C488        C547   1.494       .  S
C489        H494   1.085       .  S
C489        C490   1.350       .  D
C490        C559   1.485       .  S
C495        C499   1.527   1_545  S
C495        C541   1.508   1_545  S
C496        H503   1.086       .  S
C496        C497   1.379       .  D
C497        C537   1.468       .  S
C498        C502   1.549       .  S
C498        H504   1.111       .  S
C499        H505   1.087       .  S
C500        C511   1.493       .  S
C501        H506   1.086       .  S
C502        C531   1.489       .  S
C507        C612   1.503       .  S
C507        N508   1.362       .  A
C507        N512   1.363       .  A
N508        C509   1.360       .  A
C509        N510   1.362       .  A
N510        C511   1.360       .  A
C511        N512   1.368       .  A
O513       Cu521   2.016   1_554  S
O514        C524   1.280       .  A
O515        C525   1.279       .  A
O516       Cu521   1.980       .  S
O517        C526   1.277       .  A
O518       Cu522   2.014       .  S
O519       Cu522   1.991   1_556  S
O520        C523   1.277       .  A
C523        C543   1.471       .  S
C524        C549   1.466       .  S
C525        C529   1.473       .  S
C526        C567   1.449       .  S
C527        C601   1.467       .  S
C527        N528   1.363       .  A
C527        N532   1.365       .  A
N528        C529   1.351       .  A
C529        N530   1.346       .  A
N530        C531   1.362       .  A
C531        N532   1.358       .  A
C533        C615   1.502       .  S
C533        N534   1.360       .  A
C533        N538   1.368       .  A
N534        C535   1.356       .  A
C535        N536   1.349       .  A
N536        C537   1.349       .  A
C537        N538   1.368       .  A
C539        C598   1.469       .  S
C539        N540   1.363       .  A
C539        N544   1.364       .  A
N540        C541   1.354       .  A
C541        N542   1.363       .  A
N542        C543   1.345       .  A
C543        N544   1.352       .  A
C545        C584   1.501       .  S
C545        N546   1.364       .  A
C545        N550   1.359       .  A
N546        C547   1.367       .  A
C547        N548   1.362       .  A
N548        C549   1.362       .  A
C549        N550   1.355       .  A
C551        C570   1.469       .  S
C551        N552   1.363       .  A
C551        N556   1.362       .  A
N552        C553   1.351       .  A
C553        N554   1.348       .  A
N554        C555   1.364       .  A
C555        N556   1.353       .  A
C557        C573   1.464       .  S
C557        N558   1.363       .  A
C557        N562   1.359       .  A
N558        C559   1.357       .  A
C559        N560   1.364       .  A
N560        C561   1.346       .  A
C561        N562   1.348       .  A
C563        C587   1.496       .  S
C563        N564   1.368       .  A
C563        N568   1.359       .  A
N564        C565   1.368       .  A
C565        N566   1.351       .  A
N566        C567   1.351       .  A
C567        N568   1.352       .  A
C569        C574   1.402       .  A
C569        H576   1.084       .  S
C570        C571   1.408       .  A
C571        C572   1.390       .  A
C571        N578   1.434       .  S
C572        H577   1.084       .  S
C573        C574   1.406       .  A
C574        N575   1.432       .  S
N575        H579   1.046       .  S
N575        H580   1.045       .  S
N578        H581   1.046       .  S
N578        H582   1.046       .  S
C583        C588   1.402       .  A
C583        H590   1.084       .  S
C584        C585   1.416       .  A
C585        C586   1.414       .  A
C585        N592   1.431       .  S
C586        H591   1.083       .  S
C587        C588   1.417       .  A
C588        N589   1.439       .  S
N589        H593   1.046       .  S
N589        H594   1.045       .  S
N592        H595   1.045       .  S
N592        H596   1.046       .  S
C597        C602   1.405       .  A
C597        H604   1.084       .  S
C598        C599   1.408       .  A
C599        C600   1.390       .  A
C599        N606   1.434       .  S
C600        H605   1.084       .  S
C601        C602   1.410       .  A
C602        N603   1.438       .  S
N603        H607   1.046       .  S
N603        H608   1.045       .  S
N606        H609   1.046       .  S
N606        H610   1.046       .  S
C611        C616   1.404       .  A
C611        H618   1.083       .  S
C612        C613   1.418   1_655  A
C613        C614   1.416       .  A
C613        N620   1.432       .  S
C614        H619   1.084       .  S
C615        C616   1.416       .  A
C616        N617   1.433       .  S
N617        H621   1.046       .  S
N617        H622   1.046       .  S
N620        H623   1.046       .  S
N620        H624   1.046       .  S
