geometry optimzed in LAMMPS
_audit_creation_date              2020-12-01 
_audit_creation_method            'lammps2cif' 
_symmetry_space_group_name_H-M    'P1' 
_symmetry_Int_Tables_number       1 
_symmetry_cell_setting            triclinic 
loop_ 
_symmetry_equiv_pos_as_xyz 
  x,y,z 
_cell_length_a                    33.79101613 
_cell_length_b                    40.91900170470351 
_cell_length_c                    37.14256331730551 
_cell_angle_alpha                 90.00567673638321 
_cell_angle_beta                  96.38231036757983 
_cell_angle_gamma                 90.03057116806714 
loop_ 
_atom_site_label 
_atom_site_type_symbol 
_atom_site_fract_x 
_atom_site_fract_y 
_atom_site_fract_z 
_atom_site_charge 
O1          O  0.04626801  0.79486651  0.14784214    -0.55400
C2          C  0.00930825  0.84431307  0.22849924     0.77300
O3          O  0.12488417  0.87260076  0.21785211    -0.56500
C4          C  0.07506281  0.79274512  0.12889945     0.77200
C5          C  0.05054327  0.89793931  0.12913575     0.79600
Cd6        Cd  0.06962717  0.84548217  0.17942449     1.37500
O7          O  0.02390637  0.81815699  0.21756733    -0.55400
O8          O  0.02565236  0.87581784  0.13414166    -0.54200
C9          C  0.14206459  0.84635021  0.22860013     0.79600
O10         O  0.08447191  0.89608323  0.14721557    -0.56500
O11         O  0.02249224  0.87073805  0.21690935    -0.55000
O12         O  0.10122443  0.81494439  0.13313148    -0.55000
O13         O  0.12600334  0.82004449  0.21668958    -0.54200
O14         O  0.12922483  0.74040892  0.01463278    -0.55400
C15         C  0.07800915  0.76585495  0.10328859     0.77300
O16         O  0.02819702  0.68597393  0.01451595    -0.56500
C17         C  0.14380970  0.71425213  0.00369224     0.77200
C18         C  0.10264529  0.66071386  0.10312903     0.79600
Cd19       Cd  0.08353041  0.71311137  0.05280103     1.37500
O20         O  0.10682665  0.76372756  0.08437329    -0.55400
O21         O  0.12745426  0.68293671  0.09825491    -0.54200
C22         C  0.01109549  0.71222956  0.00367030     0.79600
O23         O  0.06878949  0.66244787  0.08490281    -0.56500
O24         O  0.05184340  0.74365878  0.09903832    -0.55000
O25         O  0.13063010  0.68782779  0.01528791    -0.55000
O26         O  0.02723398  0.73854014  0.01547358    -0.54200
O27         O  0.27255114  0.79327132  0.33282365    -0.55400
C28         C  0.31194291  0.84422256  0.25336990     0.77300
O29         O  0.19411815  0.87217163  0.26725427    -0.56500
C30         C  0.24490589  0.79258495  0.35315557     0.77200
C31         C  0.27198283  0.89715340  0.35288744     0.79600
Cd32       Cd  0.25153193  0.84497842  0.30241832     1.37500
O33         O  0.29984764  0.81806690  0.26659088    -0.55400
O34         O  0.29590867  0.87409925  0.34870205    -0.54200
C35         C  0.17882047  0.84617898  0.25356849     0.79600
O36         O  0.23861458  0.89643566  0.33375735    -0.56500
O37         O  0.29625706  0.87047552  0.26268038    -0.55000
O38         O  0.22018841  0.81588663  0.34996067    -0.55000
O39         O  0.19682102  0.81984830  0.26247029    -0.54200
O40         O  0.21401673  0.76538731  0.39949820    -0.55400
C41         C  0.17450651  0.71434993  0.47882422     0.77300
O42         O  0.24780093  0.66210253  0.39865769    -0.56500
C43         C  0.24165339  0.76606575  0.37915661     0.77200
C44         C  0.30767624  0.71240711  0.47870670     0.79600
Cd45       Cd  0.23498026  0.71364446  0.42984958     1.37500
O46         O  0.18666109  0.74051816  0.46568012    -0.55400
O47         O  0.28965189  0.73873795  0.46985637    -0.54200
C48         C  0.21453191  0.66150792  0.37936126     0.79600
O49         O  0.29240957  0.68642486  0.46496709    -0.56500
O50         O  0.19014940  0.68809885  0.46945671    -0.55000
O51         O  0.26635128  0.74274877  0.38233049    -0.55000
O52         O  0.19070946  0.68467373  0.38338440    -0.54200
O53         O  0.01967155  0.24048837  0.21542083    -0.55400
C54         C  0.07492817  0.26604840  0.12913635     0.77300
O55         O  0.12556938  0.18639878  0.21490852    -0.56500
C56         C  0.00767180  0.21434767  0.22874773     0.77200
C57         C  0.04760271  0.16142391  0.12927545     0.79600
Cd58       Cd  0.06812588  0.21358293  0.17975719     1.37500
O59         O  0.04712671  0.26527306  0.14929547    -0.55400
O60         O  0.02377310  0.18456532  0.13337476    -0.54200
C61         C  0.14077124  0.21238641  0.22869859     0.79600
O62         O  0.08092925  0.16205533  0.14847751    -0.56500
O63         O  0.09971440  0.24279702  0.13244289    -0.55000
O64         O  0.02346375  0.18810102  0.21955683    -0.55000
O65         O  0.12269952  0.23870124  0.21986870    -0.54200
O66         O  0.10603351  0.29334512  0.08299108    -0.55400
C67         C  0.14550088  0.34425775  0.00348995     0.77300
O68         O  0.02761553  0.37220610  0.01735342    -0.56500
C69         C  0.07826813  0.29260174  0.10319007     0.77200
C70         C  0.10559906  0.39722157  0.10297826     0.79600
Cd71       Cd  0.08506405  0.34503507  0.05251576     1.37500
O72         O  0.13352527  0.31811958  0.01684318    -0.55400
O73         O  0.12948961  0.37414489  0.09878505    -0.54200
C74         C  0.01241276  0.34622033  0.00355892     0.79600
O75         O  0.07221547  0.39651798  0.08387191    -0.56500
O76         O  0.12969420  0.37050269  0.01266849    -0.55000
O77         O  0.05351387  0.31587609  0.09990979    -0.55000
O78         O  0.03048404  0.31990544  0.01239258    -0.54200
O79         O  0.29557831  0.24042668  0.26440079    -0.55400
C80         C  0.24462306  0.26587026  0.35328838     0.77300
O81         O  0.19465089  0.18598952  0.26451585    -0.56500
C82         C  0.31031298  0.21427047  0.25362239     0.77200
C83         C  0.26917255  0.16068889  0.35303960     0.79600
Cd84       Cd  0.25003063  0.21313682  0.30275006     1.37500
O85         O  0.27334519  0.26377801  0.33425767    -0.55400
O86         O  0.29385603  0.18307627  0.34841141    -0.54200
C87         C  0.17751958  0.21223339  0.25367659     0.79600
O88         O  0.23543116  0.16228494  0.33459255    -0.56500
O89         O  0.21848187  0.24364749  0.34912461    -0.55000
O90         O  0.29728466  0.18785984  0.26538631    -0.55000
O91         O  0.19363932  0.23855071  0.26548278    -0.54200
O92         O  0.21302582  0.29487902  0.39794143    -0.55400
C93         C  0.17618957  0.34433847  0.47860760     0.77300
O94         O  0.29176706  0.37262222  0.46787094    -0.56500
C95         C  0.24176015  0.29275385  0.37892802     0.77200
C96         C  0.21739568  0.39798819  0.37920670     0.79600
Cd97       Cd  0.23647095  0.34549947  0.42947799     1.37500
O98         O  0.19094695  0.31818627  0.46784064    -0.55400
O99         O  0.19261532  0.37571146  0.38396546    -0.54200
C100        C  0.30899767  0.34637979  0.47857147     0.79600
O101        O  0.25120711  0.39626666  0.39751440    -0.56500
O102        O  0.18919718  0.37075238  0.46683170    -0.55000
O103        O  0.26793735  0.31494555  0.38311207    -0.55000
O104        O  0.29297402  0.32007272  0.46661957    -0.54200
N105        N  0.15589798  0.57954930  0.24187692    -0.34200
N106        N  0.13879245  0.52905945  0.18653151    -0.54700
N107        N  0.16440565  0.47921166  0.24042266    -0.34100
N108        N  0.18153486  0.52970137  0.29576220    -0.54700
C109        C  0.14807290  0.59872729  0.21221243     0.29400
C110        C  0.17090676  0.59905793  0.26958180     0.29400
C111        C  0.14941154  0.45970365  0.21270854     0.29400
C112        C  0.17220370  0.46003408  0.27009427     0.29400
C113        C  0.12908824  0.55542600  0.16551792     0.38100
C114        C  0.13193160  0.50249294  0.16514600     0.38100
C115        C  0.18840407  0.55627066  0.31714090     0.38100
C116        C  0.19120407  0.50333571  0.31678833     0.38100
C117        C  0.15724229  0.63093353  0.22147615    -0.19400
C118        C  0.17162225  0.63113738  0.25752819    -0.19400
C119        C  0.14869221  0.42762515  0.22476171    -0.19400
C120        C  0.16304308  0.42782900  0.26082129    -0.19400
C121        C  0.11607409  0.54554150  0.13046434    -0.20500
C122        C  0.11793868  0.51206686  0.13021392    -0.20500
C123        C  0.20239027  0.54670184  0.35207622    -0.20500
C124        C  0.20422497  0.51322593  0.35183836    -0.20500
C125        C  0.13288400  0.58834945  0.17694405    -0.15800
C126        C  0.18396098  0.58909326  0.30550308    -0.15800
C127        C  0.18735068  0.47040890  0.30537994    -0.15800
C128        C  0.13635234  0.46966755  0.17678379    -0.15800
H129        H  0.15436670  0.65214870  0.20397848     0.17100
H130        H  0.18183897  0.65254363  0.27298610     0.17100
H131        H  0.13848521  0.40621883  0.20929974     0.17100
H132        H  0.16590343  0.40661308  0.27831809     0.17100
H133        H  0.10642518  0.56083433  0.10737460     0.15400
H134        H  0.10955336  0.49656533  0.10699836     0.15400
H135        H  0.21077585  0.56220673  0.37528912     0.15400
H136        H  0.21385035  0.49793566  0.37493614     0.15400
H137        H  0.14854660  0.55511105  0.24374729     0.28600
H138        H  0.17174534  0.50365246  0.23855842     0.28600
N139        N  0.32217461  0.07945665  0.49181547    -0.34200
N140        N  0.01446707  0.02960395  0.04570660    -0.54700
N141        N  0.33070064  0.97912588  0.49035551    -0.34100
N142        N  0.30509451  0.02897897  0.43645844    -0.54700
C143        C  0.00382507  0.09896035  0.01953621     0.29400
C144        C  0.31440310  0.09863806  0.46214384     0.29400
C145        C  0.00517853  0.95994607  0.02002315     0.29400
C146        C  0.31567060  0.95962372  0.46265038     0.29400
C147        C  0.02132375  0.05616964  0.06709271     0.38100
C148        C  0.02419262  0.00323911  0.06671684     0.38100
C149        C  0.29545741  0.05534737  0.41542752     0.38100
C150        C  0.29823869  0.00241157  0.41507461     0.38100
C151        C  0.00456458  0.13103907  0.00748714    -0.19400
C152        C  0.32357222  0.13084007  0.47142274    -0.19400
C153        C  0.99598347  0.92774547  0.01075903    -0.19400
C154        C  0.31493089  0.92754701  0.47470764    -0.19400
C155        C  0.03534451  0.04659805  0.10201926    -0.20500
C156        C  0.03722660  0.01312466  0.10176593    -0.20500
C157        C  0.28248536  0.04546261  0.38036500    -0.20500
C158        C  0.28430702  0.01198542  0.38012731    -0.20500
C159        C  0.01687190  0.08899315  0.05546087    -0.15800
C160        C  0.29927849  0.08827093  0.42685075    -0.15800
C161        C  0.30262496  0.96958759  0.42672332    -0.15800
C162        C  0.02037215  0.97031580  0.05529651    -0.15800
H163        H  0.01477656  0.15244162  0.02295356     0.17100
H164        H  0.32073892  0.15205637  0.45392566     0.17100
H165        H  0.99884445  0.90653019  0.02825691     0.17100
H166        H  0.30469703  0.90614456  0.45925134     0.17100
H167        H  0.04373398  0.06210037  0.12523352     0.15400
H168        H  0.04689249  0.99783321  0.12485244     0.15400
H169        H  0.27289307  0.06075665  0.35726186     0.15400
H170        H  0.27594258  0.99648292  0.35690813     0.15400
H171        H  0.31482504  0.05501629  0.49367594     0.28600
H172        H  0.33807009  0.00356125  0.48848327     0.28600
C173        C  0.19837356  0.44528272  0.33216678    -0.10800
C174        C  0.20744594  0.42398463  0.35394655    -0.12400
C175        C  0.28824200  0.11340298  0.40007566    -0.10800
C176        C  0.27915155  0.13470273  0.37830369    -0.12400
C177        C  0.11597116  0.42299566  0.12848353    -0.10800
C178        C  0.12512288  0.44428732  0.15029197    -0.12400
C179        C  0.03722569  0.13565736  0.10376845    -0.10800
C180        C  0.02807796  0.11437039  0.08195697    -0.12400
C181        C  0.20421591  0.63575406  0.35383040    -0.10800
C182        C  0.19512669  0.61447147  0.33200239    -0.12400
C183        C  0.28229837  0.92291993  0.37841086    -0.10800
C184        C  0.29141161  0.94420837  0.40023030    -0.12400
C185        C  0.11262194  0.63475336  0.12841492    -0.10800
C186        C  0.12175804  0.61347064  0.15018938    -0.12200
C187        C  0.04057954  0.92391187  0.10385329    -0.10800
C188        C  0.03146272  0.94519166  0.08206495    -0.12400
O189        O  0.04626781  0.79486663  0.64784213    -0.55400
C190        C  0.00930840  0.84431312  0.72849925     0.77300
O191        O  0.12488407  0.87260033  0.71785234    -0.56500
C192        C  0.07506288  0.79274500  0.62889979     0.77200
C193        C  0.05054370  0.89793901  0.62913546     0.79600
Cd194      Cd  0.06962745  0.84548208  0.67942448     1.37500
O195        O  0.02390624  0.81815701  0.71756715    -0.55400
O196        O  0.02565277  0.87581758  0.63414151    -0.54200
C197        C  0.14206477  0.84634976  0.72859985     0.79600
O198        O  0.08447240  0.89608287  0.64721515    -0.56500
O199        O  0.02249282  0.87073806  0.71690964    -0.55000
O200        O  0.10122488  0.81494393  0.63313217    -0.55000
O201        O  0.12600384  0.82004404  0.71668890    -0.54200
O202        O  0.12922515  0.74040918  0.51463345    -0.55400
C203        C  0.07800901  0.76585496  0.60328883     0.77300
O204        O  0.02819684  0.68597407  0.51451620    -0.56500
C205        C  0.14380991  0.71425239  0.50369277     0.77200
C206        C  0.10264518  0.66071422  0.60312920     0.79600
Cd207      Cd  0.08353021  0.71311163  0.55280121     1.37500
O208        O  0.10682664  0.76372752  0.58437368    -0.55400
O209        O  0.12745402  0.68293717  0.59825514    -0.54200
C210        C  0.01109532  0.71222967  0.50367041     0.79600
O211        O  0.06878933  0.66244816  0.58490301    -0.56500
O212        O  0.05184299  0.74365905  0.59903826    -0.55000
O213        O  0.13062997  0.68782805  0.51528811    -0.55000
O214        O  0.02723381  0.73854029  0.51547358    -0.54200
O215        O  0.27255118  0.79327134  0.83282369    -0.55400
C216        C  0.31194273  0.84422264  0.75336955     0.77300
O217        O  0.19411805  0.87217122  0.76725403    -0.56500
C218        C  0.24490599  0.79258509  0.85315568     0.77200
C219        C  0.27198241  0.89715318  0.85288746     0.79600
Cd220      Cd  0.25153189  0.84497825  0.80241805     1.37500
O221        O  0.29984735  0.81806690  0.76659030    -0.55400
O222        O  0.29590848  0.87409928  0.84870173    -0.54200
C223        C  0.17882054  0.84617853  0.75356819     0.79600
O224        O  0.23861404  0.89643525  0.83375752    -0.56500
O225        O  0.29625708  0.87047559  0.76268036    -0.55000
O226        O  0.22018847  0.81588673  0.84996063    -0.55000
O227        O  0.19682114  0.81984788  0.76246999    -0.54200
O228        O  0.21401723  0.76538785  0.89949886    -0.55400
C229        C  0.17450614  0.71434970  0.97882362     0.77300
O230        O  0.24780075  0.66210313  0.89865677    -0.56500
C231        C  0.24165349  0.76606596  0.87915681     0.77200
C232        C  0.30767597  0.71240650  0.97870668     0.79600
Cd233      Cd  0.23498003  0.71364444  0.92984932     1.37500
O234        O  0.18666017  0.74051792  0.96567904    -0.55400
O235        O  0.28965152  0.73873735  0.96985660    -0.54200
C236        C  0.21453136  0.66150820  0.87936097     0.79600
O237        O  0.29240934  0.68642433  0.96496678    -0.56500
O238        O  0.19014958  0.68809867  0.96945661    -0.55000
O239        O  0.26635088  0.74274864  0.88233016    -0.55000
O240        O  0.19070862  0.68467367  0.88338465    -0.54200
O241        O  0.01967199  0.24048840  0.71542136    -0.55400
C242        C  0.07492847  0.26604840  0.62913630     0.77300
O243        O  0.12556930  0.18639841  0.71490854    -0.56500
C244        C  0.00767183  0.21434766  0.72874789     0.77200
C245        C  0.04760258  0.16142392  0.62927528     0.79600
Cd246      Cd  0.06812591  0.21358276  0.67975711     1.37500
O247        O  0.04712709  0.26527309  0.64929548    -0.55400
O248        O  0.02377299  0.18456532  0.63337473    -0.54200
C249        C  0.14077118  0.21238606  0.72869852     0.79600
O250        O  0.08092918  0.16205525  0.64847721    -0.56500
O251        O  0.09971446  0.24279685  0.63244259    -0.55000
O252        O  0.02346329  0.18810098  0.71955648    -0.55000
O253        O  0.12269952  0.23870090  0.71986856    -0.54200
O254        O  0.10603355  0.29334512  0.58299078    -0.55400
C255        C  0.14550090  0.34425776  0.50348988     0.77300
O256        O  0.02761532  0.37220631  0.51735364    -0.56500
C257        C  0.07826852  0.29260191  0.60319015     0.77200
C258        C  0.10559907  0.39722184  0.60297810     0.79600
Cd259      Cd  0.08506414  0.34503531  0.55251572     1.37500
O260        O  0.13352530  0.31811963  0.51684318    -0.55400
O261        O  0.12948945  0.37414496  0.59878528    -0.54200
C262        C  0.01241268  0.34622057  0.50355904     0.79600
O263        O  0.07221575  0.39651854  0.58387132    -0.56500
O264        O  0.12969430  0.37050274  0.51266842    -0.55000
O265        O  0.05351460  0.31587652  0.59991032    -0.55000
O266        O  0.03048409  0.31990569  0.51239257    -0.54200
O267        O  0.29557791  0.24042692  0.76440067    -0.55400
C268        C  0.24462268  0.26587047  0.85328839     0.77300
O269        O  0.19465076  0.18598938  0.76451610    -0.56500
C270        C  0.31031270  0.21427070  0.75362239     0.77200
C271        C  0.26917275  0.16068923  0.85303998     0.79600
Cd272      Cd  0.25003043  0.21313693  0.80275024     1.37500
O273        O  0.27334519  0.26377786  0.83425815    -0.55400
O274        O  0.29385588  0.18307696  0.84841220    -0.54200
C275        C  0.17751946  0.21223318  0.75367661     0.79600
O276        O  0.23543154  0.16228490  0.83459257    -0.56500
O277        O  0.21848098  0.24364815  0.84912402    -0.55000
O278        O  0.29728452  0.18786010  0.76538649    -0.55000
O279        O  0.19363909  0.23855057  0.76548271    -0.54200
O280        O  0.21302567  0.29487908  0.89794167    -0.55400
C281        C  0.17618963  0.34433855  0.97860772     0.77300
O282        O  0.29176709  0.37262218  0.96787116    -0.56500
C283        C  0.24175995  0.29275395  0.87892818     0.77200
C284        C  0.21739593  0.39798802  0.87920662     0.79600
Cd285      Cd  0.23647104  0.34549949  0.92947819     1.37500
O286        O  0.19094669  0.31818636  0.96784038    -0.55400
O287        O  0.19261557  0.37571122  0.88396518    -0.54200
C288        C  0.30899781  0.34637975  0.97857155     0.79600
O289        O  0.25120719  0.39626656  0.89751458    -0.56500
O290        O  0.18919759  0.37075251  0.96683224    -0.55000
O291        O  0.26793723  0.31494558  0.88311229    -0.55000
O292        O  0.29297431  0.32007267  0.96661952    -0.54200
N293        N  0.15589863  0.57954938  0.74187670    -0.34200
N294        N  0.13879258  0.52905954  0.68653146    -0.54700
N295        N  0.16440521  0.47921164  0.74042283    -0.34100
N296        N  0.18153499  0.52970138  0.79576221    -0.54700
C297        C  0.14807324  0.59872747  0.71221232     0.29400
C298        C  0.17090679  0.59905804  0.76958176     0.29400
C299        C  0.14941136  0.45970361  0.71270864     0.29400
C300        C  0.17220380  0.46003401  0.77009433     0.29400
C301        C  0.12908861  0.55542612  0.66551783     0.38100
C302        C  0.13193131  0.50249299  0.66514610     0.38100
C303        C  0.18840438  0.55627070  0.81714083     0.38100
C304        C  0.19120410  0.50333572  0.81678836     0.38100
C305        C  0.15724181  0.63093380  0.72147632    -0.19400
C306        C  0.17162151  0.63113759  0.75752841    -0.19400
C307        C  0.14869278  0.42762501  0.72476164    -0.19400
C308        C  0.16304377  0.42782884  0.76082121    -0.19400
C309        C  0.11607416  0.54554156  0.63046434    -0.20500
C310        C  0.11793825  0.51206691  0.63021405    -0.20500
C311        C  0.20239062  0.54670189  0.85207616    -0.20500
C312        C  0.20422513  0.51322595  0.85183838    -0.20500
C313        C  0.13288456  0.58834963  0.67694387    -0.15800
C314        C  0.18396102  0.58909330  0.80550304    -0.15800
C315        C  0.18735081  0.47040886  0.80537999    -0.15800
C316        C  0.13635196  0.46966759  0.67678392    -0.15800
H317        H  0.15436575  0.65214910  0.70397882     0.17100
H318        H  0.18183750  0.65254392  0.77298657     0.17100
H319        H  0.13848627  0.40621863  0.70929957     0.17100
H320        H  0.16590463  0.40661284  0.77831786     0.17100
H321        H  0.10642526  0.56083437  0.60737456     0.15400
H322        H  0.10955252  0.49656535  0.60699857     0.15400
H323        H  0.21077630  0.56220680  0.87528902     0.15400
H324        H  0.21385053  0.49793571  0.87493614     0.15400
H325        H  0.14854783  0.55511104  0.74374690     0.28600
H326        H  0.17174443  0.50365251  0.73855867     0.28600
N327        N  0.32217444  0.07945671  0.99181562    -0.34200
N328        N  0.01446662  0.02960400  0.54570667    -0.54700
N329        N  0.33070094  0.97912579  0.99035542    -0.34100
N330        N  0.30509459  0.02897893  0.93645848    -0.54700
C331        C  0.00382485  0.09896032  0.51953622     0.29400
C332        C  0.31440329  0.09863807  0.96214392     0.29400
C333        C  0.00517820  0.95994621  0.52002320     0.29400
C334        C  0.31567046  0.95962366  0.96265041     0.29400
C335        C  0.02132353  0.05616966  0.56709275     0.38100
C336        C  0.02419259  0.00323915  0.56671678     0.38100
C337        C  0.29545759  0.05534736  0.91542759     0.38100
C338        C  0.29823894  0.00241152  0.91507462     0.38100
C339        C  0.00456472  0.13103901  0.50748706    -0.19400
C340        C  0.32357281  0.13084001  0.97142279    -0.19400
C341        C  0.99598317  0.92774564  0.51075901    -0.19400
C342        C  0.31493034  0.92754698  0.97470777    -0.19400
C343        C  0.03534486  0.04659805  0.60201916    -0.20500
C344        C  0.03722708  0.01312466  0.60176578    -0.20500
C345        C  0.28248574  0.04546258  0.88036503    -0.20500
C346        C  0.28430747  0.01198542  0.88012733    -0.20500
C347        C  0.01687164  0.08899316  0.55546090    -0.15800
C348        C  0.29927874  0.08827095  0.92685080    -0.15800
C349        C  0.30262487  0.96958749  0.92672332    -0.15800
C350        C  0.02037199  0.97031585  0.55529651    -0.15800
H351        H  0.01477700  0.15244151  0.52295335     0.17100
H352        H  0.32074002  0.15205633  0.95392560     0.17100
H353        H  0.99884416  0.90653033  0.52825688     0.17100
H354        H  0.30469608  0.90614460  0.95925164     0.17100
H355        H  0.04373484  0.06210036  0.62523337     0.15400
H356        H  0.04689344  0.99783321  0.62485209     0.15400
H357        H  0.27289354  0.06075663  0.85726181     0.15400
H358        H  0.27594309  0.99648289  0.85690808     0.15400
H359        H  0.31482455  0.05501637  0.99367611     0.28600
H360        H  0.33807072  0.00356110  0.98848310     0.28600
C361        C  0.19837392  0.44528268  0.83216678    -0.10800
C362        C  0.20744630  0.42398451  0.85394646    -0.12400
C363        C  0.28824238  0.11340308  0.90007576    -0.10800
C364        C  0.27915193  0.13470297  0.87830397    -0.12400
C365        C  0.11597104  0.42299583  0.62848352    -0.10800
C366        C  0.12512263  0.44428739  0.65029206    -0.12400
C367        C  0.03722542  0.13565741  0.60376832    -0.10800
C368        C  0.02807773  0.11437040  0.58195693    -0.12400
C369        C  0.20421530  0.63575426  0.85383025    -0.10800
C370        C  0.19512628  0.61447155  0.83200240    -0.12400
C371        C  0.28229789  0.92291970  0.87841096    -0.10800
C372        C  0.29141132  0.94420822  0.90023034    -0.12400
C373        C  0.11262204  0.63475361  0.62841490    -0.10800
C374        C  0.12175843  0.61347083  0.65018923    -0.12200
C375        C  0.04057983  0.92391166  0.60385303    -0.10800
C376        C  0.03146281  0.94519160  0.58206488    -0.12400
O377        O  0.37960133  0.79486677  0.14784212    -0.55400
C378        C  0.34264160  0.84431283  0.22849925     0.77300
O379        O  0.45821732  0.87260075  0.21785244    -0.56500
C380        C  0.40839642  0.79274514  0.12889981     0.77200
C381        C  0.38387704  0.89793908  0.12913557     0.79600
Cd382      Cd  0.40296069  0.84548214  0.17942468     1.37500
O383        O  0.35723968  0.81815675  0.21756731    -0.55400
O384        O  0.35898625  0.87581747  0.13414129    -0.54200
C385        C  0.47539796  0.84635020  0.22860014     0.79600
O386        O  0.41780548  0.89608324  0.14721578    -0.56500
O387        O  0.35582570  0.87073780  0.21690945    -0.55000
O388        O  0.43455838  0.81494412  0.13313224    -0.55000
O389        O  0.45933696  0.82004447  0.21668935    -0.54200
O390        O  0.46255829  0.74040915  0.01463320    -0.55400
C391        C  0.41134260  0.76585502  0.10328889     0.77300
O392        O  0.36153012  0.68597381  0.01451627    -0.56500
C393        C  0.47714320  0.71425239  0.00369263     0.77200
C394        C  0.43597868  0.66071393  0.10312910     0.79600
Cd395      Cd  0.41686366  0.71311154  0.05280126     1.37500
O396        O  0.44016032  0.76372735  0.08437387    -0.55400
O397        O  0.46078753  0.68293691  0.09825520    -0.54200
C398        C  0.34442855  0.71222939  0.00367052     0.79600
O399        O  0.40212293  0.66244788  0.08490274    -0.56500
O400        O  0.38517646  0.74365919  0.09903827    -0.55000
O401        O  0.46396346  0.68782804  0.01528813    -0.55000
O402        O  0.36056697  0.73853999  0.01547381    -0.54200
O403        O  0.60588414  0.79327109  0.33282349    -0.55400
C404        C  0.64527616  0.84422280  0.25336985     0.77300
O405        O  0.52745146  0.87217166  0.26725427    -0.56500
C406        C  0.57823910  0.79258492  0.35315564     0.77200
C407        C  0.60531590  0.89715322  0.35288768     0.79600
Cd408      Cd  0.58486519  0.84497841  0.30241832     1.37500
O409        O  0.63318083  0.81806709  0.26659070    -0.55400
O410        O  0.62924190  0.87409923  0.34870206    -0.54200
C411        C  0.51215380  0.84617898  0.25356854     0.79600
O412        O  0.57194761  0.89643540  0.33375766    -0.56500
O413        O  0.62959033  0.87047574  0.26268043    -0.55000
O414        O  0.55352171  0.81588666  0.34996078    -0.55000
O415        O  0.53015427  0.81984830  0.26247047    -0.54200
O416        O  0.54735024  0.76538755  0.39949868    -0.55400
C417        C  0.50783975  0.71434991  0.47882408     0.77300
O418        O  0.58113420  0.66210271  0.39865761    -0.56500
C419        C  0.57498661  0.76606578  0.37915678     0.77200
C420        C  0.64100956  0.71240696  0.47870663     0.79600
Cd421      Cd  0.56831352  0.71364444  0.42984959     1.37500
O422        O  0.51999396  0.74051811  0.46567961    -0.55400
O423        O  0.62298502  0.73873776  0.46985647    -0.54200
C424        C  0.54786510  0.66150798  0.37936131     0.79600
O425        O  0.62574305  0.68642471  0.46496684    -0.56500
O426        O  0.52348304  0.68809886  0.46945694    -0.55000
O427        O  0.59968419  0.74274856  0.38233028    -0.55000
O428        O  0.52404252  0.68467365  0.38338461    -0.54200
O429        O  0.35300516  0.24048836  0.21542114    -0.55400
C430        C  0.40826172  0.26604842  0.12913636     0.77300
O431        O  0.45890246  0.18639877  0.21490880    -0.56500
C432        C  0.34100538  0.21434762  0.22874793     0.77200
C433        C  0.38093587  0.16142398  0.12927554     0.79600
Cd434      Cd  0.40145934  0.21358295  0.17975721     1.37500
O435        O  0.38046028  0.26527306  0.14929549    -0.55400
O436        O  0.35710616  0.18456524  0.13337525    -0.54200
C437        C  0.47410428  0.21238641  0.22869889     0.79600
O438        O  0.41426267  0.16205554  0.14847716    -0.56500
O439        O  0.43304795  0.24279704  0.13244287    -0.55000
O440        O  0.35679714  0.18810098  0.21955678    -0.55000
O441        O  0.45603271  0.23870127  0.21986888    -0.54200
O442        O  0.43936649  0.29334484  0.08299052    -0.55400
C443        C  0.47883453  0.34425805  0.00349038     0.77300
O444        O  0.36094886  0.37220617  0.01735348    -0.56500
C445        C  0.41160161  0.29260179  0.10319009     0.77200
C446        C  0.43893239  0.39722163  0.10297821     0.79600
Cd447      Cd  0.41839738  0.34503511  0.05251579     1.37500
O448        O  0.46685886  0.31811981  0.01684346    -0.55400
O449        O  0.46282294  0.37414492  0.09878505    -0.54200
C450        C  0.34574625  0.34622042  0.00355883     0.79600
O451        O  0.40554880  0.39651802  0.08387191    -0.56500
O452        O  0.46302784  0.37050295  0.01266901    -0.55000
O453        O  0.38684780  0.31587649  0.09991037    -0.55000
O454        O  0.36381762  0.31990554  0.01239235    -0.54200
O455        O  0.62891117  0.24042660  0.26440024    -0.55400
C456        C  0.57795623  0.26587027  0.35328825     0.77300
O457        O  0.52798411  0.18598958  0.26451586    -0.56500
C458        C  0.64364580  0.21427036  0.25362188     0.77200
C459        C  0.60250604  0.16068917  0.35303976     0.79600
Cd460      Cd  0.58336373  0.21313686  0.30275003     1.37500
O461        O  0.60667862  0.26377780  0.33425784    -0.55400
O462        O  0.62718937  0.18307671  0.34841171    -0.54200
C463        C  0.51085254  0.21223343  0.25367691     0.79600
O464        O  0.56876471  0.16228507  0.33459261    -0.56500
O465        O  0.55181474  0.24364776  0.34912412    -0.55000
O466        O  0.63061753  0.18785978  0.26538602    -0.55000
O467        O  0.52697202  0.23855077  0.26548332    -0.54200
O468        O  0.54635916  0.29487888  0.39794148    -0.55400
C469        C  0.50952291  0.34433845  0.47860753     0.77300
O470        O  0.62510060  0.37262252  0.46787072    -0.56500
C471        C  0.57509341  0.29275379  0.37892797     0.77200
C472        C  0.55072890  0.39798809  0.37920662     0.79600
Cd473      Cd  0.56980442  0.34549945  0.42947800     1.37500
O474        O  0.52427986  0.31818624  0.46784014    -0.55400
O475        O  0.52594873  0.37571113  0.38396518    -0.54200
C476        C  0.64233103  0.34638010  0.47857168     0.79600
O477        O  0.58454020  0.39626677  0.39751459    -0.56500
O478        O  0.52253097  0.37075237  0.46683207    -0.55000
O479        O  0.60127062  0.31494550  0.38311205    -0.55000
O480        O  0.62630731  0.32007299  0.46662008    -0.54200
N481        N  0.48923185  0.57954941  0.24187675    -0.34200
N482        N  0.47212546  0.52905944  0.18653162    -0.54700
N483        N  0.49773836  0.47921151  0.24042276    -0.34100
N484        N  0.51486843  0.52970140  0.29576209    -0.54700
C485        C  0.48140641  0.59872742  0.21221233     0.29400
C486        C  0.50424024  0.59905807  0.26958172     0.29400
C487        C  0.48274459  0.45970352  0.21270856     0.29400
C488        C  0.50553703  0.46003392  0.27009423     0.29400
C489        C  0.46242180  0.55542601  0.16551792     0.38100
C490        C  0.46526453  0.50249293  0.16514614     0.38100
C491        C  0.52173767  0.55627070  0.31714076     0.38100
C492        C  0.52453729  0.50333571  0.31678828     0.38100
C493        C  0.49057522  0.63093375  0.22147622    -0.19400
C494        C  0.50495503  0.63113759  0.25752827    -0.19400
C495        C  0.48202623  0.42762489  0.22476147    -0.19400
C496        C  0.49637720  0.42782870  0.26082109    -0.19400
C497        C  0.44940789  0.54554151  0.13046430    -0.20500
C498        C  0.45127201  0.51206687  0.13021397    -0.20500
C499        C  0.53572369  0.54670185  0.35207613    -0.20500
C500        C  0.53755805  0.51322593  0.35183834    -0.20500
C501        C  0.46621759  0.58834951  0.17694397    -0.15800
C502        C  0.51729453  0.58909333  0.30550298    -0.15800
C503        C  0.52068392  0.47040885  0.30537991    -0.15800
C504        C  0.46968512  0.46966753  0.17678390    -0.15800
H505        H  0.48769918  0.65214902  0.20397865     0.17100
H506        H  0.51517110  0.65254396  0.27298638     0.17100
H507        H  0.47181987  0.40621853  0.20929930     0.17100
H508        H  0.49923822  0.40661273  0.27831769     0.17100
H509        H  0.43975936  0.56083436  0.10737447     0.15400
H510        H  0.44288668  0.49656537  0.10699838     0.15400
H511        H  0.54410929  0.56220673  0.37528905     0.15400
H512        H  0.54718315  0.49793565  0.37493618     0.15400
H513        H  0.48188085  0.55511112  0.24374705     0.28600
H514        H  0.50507741  0.50365246  0.23855866     0.28600
N515        N  0.65550784  0.07945660  0.49181552    -0.34200
N516        N  0.34780033  0.02960396  0.04570652    -0.54700
N517        N  0.66403439  0.97912601  0.49035546    -0.34100
N518        N  0.63842806  0.02897897  0.43645837    -0.54700
C519        C  0.33715831  0.09896035  0.01953628     0.29400
C520        C  0.64773640  0.09863802  0.46214387     0.29400
C521        C  0.33851181  0.95994605  0.02002310     0.29400
C522        C  0.64900418  0.95962382  0.46265033     0.29400
C523        C  0.35465670  0.05616960  0.06709278     0.38100
C524        C  0.35752612  0.00323908  0.06671667     0.38100
C525        C  0.62879078  0.05534737  0.41542752     0.38100
C526        C  0.63157224  0.00241159  0.41507454     0.38100
C527        C  0.33789854  0.13103899  0.00748707    -0.19400
C528        C  0.65690557  0.13083999  0.47142284    -0.19400
C529        C  0.32931628  0.92774551  0.01075911    -0.19400
C530        C  0.64826409  0.92754711  0.47470759    -0.19400
C531        C  0.36867749  0.04659796  0.10201934    -0.20500
C532        C  0.37055995  0.01312456  0.10176580    -0.20500
C533        C  0.61581857  0.04546261  0.38036504    -0.20500
C534        C  0.61764033  0.01198543  0.38012727    -0.20500
C535        C  0.35020483  0.08899315  0.05546102    -0.15800
C536        C  0.63261193  0.08827094  0.42685073    -0.15800
C537        C  0.63595852  0.96958762  0.42672325    -0.15800
C538        C  0.35370575  0.97031575  0.05529635    -0.15800
H539        H  0.34811095  0.15244150  0.02295337     0.17100
H540        H  0.65407238  0.15205635  0.45392572     0.17100
H541        H  0.33217705  0.90653028  0.02825708     0.17100
H542        H  0.63803010  0.90614477  0.45925134     0.17100
H543        H  0.37706682  0.06210016  0.12523369     0.15400
H544        H  0.38022590  0.99783303  0.12485221     0.15400
H545        H  0.60622606  0.06075668  0.35726194     0.15400
H546        H  0.60927573  0.99648294  0.35690812     0.15400
H547        H  0.64815821  0.05501623  0.49367598     0.28600
H548        H  0.67140420  0.00356125  0.48848319     0.28600
C549        C  0.53170678  0.44528270  0.33216676    -0.10800
C550        C  0.54077909  0.42398452  0.35394648    -0.12400
C551        C  0.62157556  0.11340305  0.40007562    -0.10800
C552        C  0.61248516  0.13470291  0.37830378    -0.12400
C553        C  0.44930445  0.42299570  0.12848351    -0.10800
C554        C  0.45845587  0.44428735  0.15029201    -0.12400
C555        C  0.37055861  0.13565742  0.10376857    -0.10800
C556        C  0.36141076  0.11437038  0.08195717    -0.12400
C557        C  0.53754916  0.63575409  0.35383043    -0.10800
C558        C  0.52846002  0.61447153  0.33200237    -0.12400
C559        C  0.61563141  0.92291975  0.37841112    -0.10800
C560        C  0.62474487  0.94420833  0.40023035    -0.12400
C561        C  0.44595532  0.63475336  0.12841486    -0.10800
C562        C  0.45509156  0.61347062  0.15018927    -0.12200
C563        C  0.37391336  0.92391165  0.10385299    -0.10800
C564        C  0.36479654  0.94519155  0.08206475    -0.12400
O565        O  0.37960140  0.79486657  0.64784236    -0.55400
C566        C  0.34264131  0.84431302  0.72849883     0.77300
O567        O  0.45821713  0.87260045  0.71785260    -0.56500
C568        C  0.40839621  0.79274516  0.62889968     0.77200
C569        C  0.38387717  0.89793933  0.62913548     0.79600
Cd570      Cd  0.40296065  0.84548221  0.67942443     1.37500
O571        O  0.35723923  0.81815695  0.71756669    -0.55400
O572        O  0.35898614  0.87581800  0.63414153    -0.54200
C573        C  0.47539773  0.84634983  0.72860014     0.79600
O574        O  0.41780582  0.89608317  0.64721528    -0.56500
O575        O  0.35582551  0.87073800  0.71690917    -0.55000
O576        O  0.43455786  0.81494441  0.63313164    -0.55000
O577        O  0.45933670  0.82004417  0.71668922    -0.54200
O578        O  0.46255799  0.74040910  0.51463294    -0.55400
C579        C  0.41134247  0.76585499  0.60328888     0.77300
O580        O  0.36153038  0.68597434  0.51451594    -0.56500
C581        C  0.47714324  0.71425233  0.50369271     0.77200
C582        C  0.43597838  0.66071403  0.60312918     0.79600
Cd583      Cd  0.41686356  0.71311161  0.55280127     1.37500
O584        O  0.44016010  0.76372742  0.58437376    -0.55400
O585        O  0.46078732  0.68293691  0.59825516    -0.54200
C586        C  0.34442876  0.71222998  0.50367050     0.79600
O587        O  0.40212255  0.66244811  0.58490300    -0.56500
O588        O  0.38517649  0.74365901  0.59903848    -0.55000
O589        O  0.46396388  0.68782801  0.51528863    -0.55000
O590        O  0.36056707  0.73854056  0.51547405    -0.54200
O591        O  0.60588460  0.79327133  0.83282364    -0.55400
C592        C  0.64527627  0.84422259  0.75336966     0.77300
O593        O  0.52745110  0.87217122  0.76725431    -0.56500
C594        C  0.57823945  0.79258512  0.85315569     0.77200
C595        C  0.60531560  0.89715336  0.85288737     0.79600
Cd596      Cd  0.58486522  0.84497830  0.80241805     1.37500
O597        O  0.63318091  0.81806690  0.76659053    -0.55400
O598        O  0.62924150  0.87409926  0.84870203    -0.54200
C599        C  0.51215359  0.84617856  0.75356846     0.79600
O600        O  0.57194753  0.89643569  0.83375698    -0.56500
O601        O  0.62959059  0.87047556  0.76268033    -0.55000
O602        O  0.55352195  0.81588677  0.84996067    -0.55000
O603        O  0.53015429  0.81984791  0.76247014    -0.54200
O604        O  0.54735020  0.76538756  0.89949834    -0.55400
C605        C  0.50783982  0.71434996  0.97882406     0.77300
O606        O  0.58113392  0.66210299  0.89865698    -0.56500
C607        C  0.57498695  0.76606602  0.87915683     0.77200
C608        C  0.64100950  0.71240674  0.97870653     0.79600
Cd609      Cd  0.56831353  0.71364450  0.92984936     1.37500
O610        O  0.51999405  0.74051815  0.96567959    -0.55400
O611        O  0.62298531  0.73873762  0.96985610    -0.54200
C612        C  0.54786460  0.66150820  0.87936104     0.79600
O613        O  0.62574264  0.68642450  0.96496705    -0.56500
O614        O  0.52348311  0.68809892  0.96945692    -0.55000
O615        O  0.59968484  0.74274905  0.88233072    -0.55000
O616        O  0.52404201  0.68467381  0.88338460    -0.54200
O617        O  0.35300520  0.24048840  0.71542117    -0.55400
C618        C  0.40826161  0.26604839  0.62913622     0.77300
O619        O  0.45890260  0.18639841  0.71490856    -0.56500
C620        C  0.34100511  0.21434773  0.72874785     0.77200
C621        C  0.38093578  0.16142368  0.62927549     0.79600
Cd622      Cd  0.40145917  0.21358273  0.67975710     1.37500
O623        O  0.38046003  0.26527290  0.64929519    -0.55400
O624        O  0.35710623  0.18456510  0.63337492    -0.54200
C625        C  0.47410447  0.21238605  0.72869859     0.79600
O626        O  0.41426236  0.16205499  0.64847750    -0.56500
O627        O  0.43304776  0.24279698  0.63244267    -0.55000
O628        O  0.35679656  0.18810101  0.71955654    -0.55000
O629        O  0.45603282  0.23870089  0.71986858    -0.54200
O630        O  0.43936708  0.29334535  0.58299111    -0.55400
C631        C  0.47883421  0.34425770  0.50348985     0.77300
O632        O  0.36094887  0.37220616  0.51735336    -0.56500
C633        C  0.41160171  0.29260193  0.60319014     0.77200
C634        C  0.43893234  0.39722185  0.60297817     0.79600
Cd635      Cd  0.41839744  0.34503528  0.55251573     1.37500
O636        O  0.46685830  0.31811954  0.51684285    -0.55400
O637        O  0.46282270  0.37414492  0.59878546    -0.54200
C638        C  0.34574614  0.34622039  0.50355882     0.79600
O639        O  0.40554906  0.39651854  0.58387131    -0.56500
O640        O  0.46302790  0.37050270  0.51266871    -0.55000
O641        O  0.38684755  0.31587634  0.59991000    -0.55000
O642        O  0.36381738  0.31990550  0.51239254    -0.54200
O643        O  0.62891135  0.24042682  0.76440073    -0.55400
C644        C  0.57795621  0.26587034  0.85328866     0.77300
O645        O  0.52798396  0.18598938  0.76451637    -0.56500
C646        C  0.64364609  0.21427060  0.75362241     0.77200
C647        C  0.60250650  0.16068911  0.85303976     0.79600
Cd648      Cd  0.58336380  0.21313692  0.80275025     1.37500
O649        O  0.60667848  0.26377803  0.83425807    -0.55400
O650        O  0.62718970  0.18307674  0.84841166    -0.54200
C651        C  0.51085277  0.21223318  0.75367668     0.79600
O652        O  0.56876508  0.16228496  0.83459276    -0.56500
O653        O  0.55181488  0.24364771  0.84912460    -0.55000
O654        O  0.63061780  0.18785999  0.76538646    -0.55000
O655        O  0.52697259  0.23855058  0.76548251    -0.54200
O656        O  0.54635917  0.29487883  0.89794202    -0.55400
C657        C  0.50952317  0.34433885  0.97860807     0.77300
O658        O  0.62510024  0.37262207  0.96787122    -0.56500
C659        C  0.57509331  0.29275387  0.87892832     0.77200
C660        C  0.55072934  0.39798811  0.87920663     0.79600
Cd661      Cd  0.56980427  0.34549951  0.92947822     1.37500
O662        O  0.52428032  0.31818665  0.96784088    -0.55400
O663        O  0.52594883  0.37571145  0.88396535    -0.54200
C664        C  0.64233088  0.34637960  0.97857167     0.79600
O665        O  0.58454063  0.39626654  0.89751459    -0.56500
O666        O  0.52253087  0.37075278  0.96683222    -0.55000
O667        O  0.60127023  0.31494582  0.88311205    -0.55000
O668        O  0.62630730  0.32007256  0.96661970    -0.54200
N669        N  0.48923131  0.57954931  0.74187687    -0.34200
N670        N  0.47212610  0.52905954  0.68653143    -0.54700
N671        N  0.49773909  0.47921171  0.74042268    -0.34100
N672        N  0.51486820  0.52970141  0.79576226    -0.54700
C673        C  0.48140653  0.59872730  0.71221236     0.29400
C674        C  0.50423988  0.59905791  0.76958186     0.29400
C675        C  0.48274481  0.45970374  0.71270857     0.29400
C676        C  0.50553730  0.46003412  0.77009425     0.29400
C677        C  0.46242186  0.55542607  0.66551784     0.38100
C678        C  0.46526491  0.50249301  0.66514600     0.38100
C679        C  0.52173715  0.55627067  0.81714101     0.38100
C680        C  0.52453781  0.50333576  0.81678830     0.38100
C681        C  0.49057596  0.63093351  0.72147617    -0.19400
C682        C  0.50495558  0.63113736  0.75752828    -0.19400
C683        C  0.48202551  0.42762525  0.72476172    -0.19400
C684        C  0.49637652  0.42782907  0.76082129    -0.19400
C685        C  0.44940742  0.54554157  0.63046432    -0.20500
C686        C  0.45127178  0.51206696  0.63021400    -0.20500
C687        C  0.53572363  0.54670187  0.85207629    -0.20500
C688        C  0.53755886  0.51322596  0.85183831    -0.20500
C689        C  0.46621762  0.58834952  0.67694396    -0.15800
C690        C  0.51729379  0.58909326  0.80550322    -0.15800
C691        C  0.52068460  0.47040893  0.80537986    -0.15800
C692        C  0.46968548  0.46966767  0.67678385    -0.15800
H693        H  0.48770052  0.65214873  0.70397847     0.17100
H694        H  0.51517218  0.65254355  0.77298628     0.17100
H695        H  0.47181841  0.40621897  0.70929976     0.17100
H696        H  0.49923683  0.40661313  0.77831807     0.17100
H697        H  0.43975829  0.56083436  0.60737461     0.15400
H698        H  0.44288600  0.49656538  0.60699847     0.15400
H699        H  0.54410919  0.56220676  0.87528920     0.15400
H700        H  0.54718468  0.49793571  0.87493594     0.15400
H701        H  0.48187977  0.55511108  0.74374723     0.28600
H702        H  0.50507882  0.50365253  0.73855845     0.28600
N703        N  0.65550801  0.07945670  0.99181557    -0.34200
N704        N  0.34780014  0.02960397  0.54570653    -0.54700
N705        N  0.66403392  0.97912589  0.99035554    -0.34100
N706        N  0.63842760  0.02897892  0.93645850    -0.54700
C707        C  0.33715839  0.09896036  0.51953611     0.29400
C708        C  0.64773650  0.09863812  0.96214392     0.29400
C709        C  0.33851160  0.95994610  0.52002315     0.29400
C710        C  0.64900380  0.95962366  0.96265045     0.29400
C711        C  0.35465706  0.05616966  0.56709258     0.38100
C712        C  0.35752589  0.00323914  0.56671671     0.38100
C713        C  0.62879108  0.05534737  0.91542750     0.38100
C714        C  0.63157172  0.00241150  0.91507472     0.38100
C715        C  0.33789819  0.13103903  0.50748696    -0.19400
C716        C  0.65690531  0.13084015  0.97142296    -0.19400
C717        C  0.32931660  0.92774550  0.51075901    -0.19400
C718        C  0.64826447  0.92754691  0.97470766    -0.19400
C719        C  0.36867817  0.04659809  0.60201907    -0.20500
C720        C  0.37056026  0.01312469  0.60176572    -0.20500
C721        C  0.61581926  0.04546260  0.88036493    -0.20500
C722        C  0.61764046  0.01198541  0.88012735    -0.20500
C723        C  0.35020517  0.08899316  0.55546076    -0.15800
C724        C  0.63261229  0.08827096  0.92685072    -0.15800
C725        C  0.63595776  0.96958750  0.92672344    -0.15800
C726        C  0.35370533  0.97031582  0.55529644    -0.15800
H727        H  0.34811041  0.15244160  0.52295332     0.17100
H728        H  0.65407195  0.15205653  0.95392588     0.17100
H729        H  0.33217762  0.90653020  0.52825686     0.17100
H730        H  0.63803077  0.90614444  0.95925138     0.17100
H731        H  0.37706791  0.06210041  0.62523325     0.15400
H732        H  0.38022638  0.99783325  0.62485216     0.15400
H733        H  0.60622740  0.06075665  0.85726168     0.15400
H734        H  0.60927608  0.99648287  0.85690811     0.15400
H735        H  0.64815871  0.05501629  0.99367597     0.28600
H736        H  0.67140311  0.00356127  0.98848332     0.28600
C737        C  0.53170770  0.44528274  0.83216663    -0.10800
C738        C  0.54077992  0.42398454  0.85394638    -0.12400
C739        C  0.62157605  0.11340301  0.90007558    -0.10800
C740        C  0.61248576  0.13470286  0.87830368    -0.12400
C741        C  0.44930428  0.42299587  0.62848354    -0.10800
C742        C  0.45845595  0.44428744  0.65029205    -0.12400
C743        C  0.37055869  0.13565726  0.60376843    -0.10800
C744        C  0.36141105  0.11437035  0.58195687    -0.12400
C745        C  0.53754841  0.63575426  0.85383034    -0.10800
C746        C  0.52845920  0.61447153  0.83200253    -0.12400
C747        C  0.61563089  0.92291978  0.87841105    -0.10800
C748        C  0.62474412  0.94420823  0.90023051    -0.12400
C749        C  0.44595507  0.63475340  0.62841493    -0.10800
C750        C  0.45509140  0.61347070  0.65018934    -0.12200
C751        C  0.37391353  0.92391186  0.60385295    -0.10800
C752        C  0.36479639  0.94519167  0.58206474    -0.12400
O753        O  0.71293459  0.79486675  0.14784209    -0.55400
C754        C  0.67597484  0.84431309  0.22849923     0.77300
O755        O  0.79155077  0.87260077  0.21785212    -0.56500
C756        C  0.74172954  0.79274524  0.12889956     0.77200
C757        C  0.71720993  0.89793926  0.12913572     0.79600
Cd758      Cd  0.73629389  0.84548230  0.17942449     1.37500
O759        O  0.69057268  0.81815701  0.21756702    -0.55400
O760        O  0.69231886  0.87581800  0.13414189    -0.54200
C761        C  0.80873128  0.84635020  0.22859993     0.79600
O762        O  0.75113872  0.89608299  0.14721529    -0.56500
O763        O  0.68915914  0.87073807  0.21690964    -0.55000
O764        O  0.76789127  0.81494439  0.13313172    -0.55000
O765        O  0.79267013  0.82004448  0.21668927    -0.54200
O766        O  0.79589135  0.74040915  0.01463275    -0.55400
C767        C  0.74467586  0.76585504  0.10328876     0.77300
O768        O  0.69486362  0.68597402  0.01451600    -0.56500
C769        C  0.81047661  0.71425238  0.00369257     0.77200
C770        C  0.76931214  0.66071393  0.10312888     0.79600
Cd771      Cd  0.75019700  0.71311157  0.05280107     1.37500
O772        O  0.77349362  0.76372738  0.08437378    -0.55400
O773        O  0.79412099  0.68293688  0.09825487    -0.54200
C774        C  0.67776209  0.71222963  0.00367030     0.79600
O775        O  0.73545630  0.66244793  0.08490270    -0.56500
O776        O  0.71850985  0.74365911  0.09903821    -0.55000
O777        O  0.79729724  0.68782804  0.01528844    -0.55000
O778        O  0.69390053  0.73854023  0.01547356    -0.54200
O779        O  0.93921793  0.79327128  0.33282348    -0.55400
C780        C  0.97860958  0.84422279  0.25336982     0.77300
O781        O  0.86078454  0.87217162  0.26725431    -0.56500
C782        C  0.91157272  0.79258496  0.35315544     0.77200
C783        C  0.93864926  0.89715332  0.35288752     0.79600
Cd784      Cd  0.91819864  0.84497844  0.30241811     1.37500
O785        O  0.96651446  0.81806711  0.26659090    -0.55400
O786        O  0.96257522  0.87409929  0.34870206    -0.54200
C787        C  0.84548710  0.84617897  0.25356831     0.79600
O788        O  0.90528104  0.89643550  0.33375734    -0.56500
O789        O  0.96292355  0.87047573  0.26268014    -0.55000
O790        O  0.88685521  0.81588662  0.34996046    -0.55000
O791        O  0.86348781  0.81984833  0.26246996    -0.54200
O792        O  0.88068369  0.76538756  0.39949835    -0.55400
C793        C  0.84117304  0.71434986  0.47882407     0.77300
O794        O  0.91446762  0.66210324  0.39865705    -0.56500
C795        C  0.90832023  0.76606585  0.37915664     0.77200
C796        C  0.97434273  0.71240679  0.47870664     0.79600
Cd797      Cd  0.90164680  0.71364463  0.42984954     1.37500
O798        O  0.85332763  0.74051817  0.46568010    -0.55400
O799        O  0.95631833  0.73873764  0.46985650    -0.54200
C800        C  0.88119836  0.66150834  0.37936102     0.79600
O801        O  0.95907608  0.68642458  0.46496685    -0.56500
O802        O  0.85681594  0.68809882  0.46945642    -0.55000
O803        O  0.93301802  0.74274880  0.38233049    -0.55000
O804        O  0.85737556  0.68467377  0.38338470    -0.54200
O805        O  0.68633835  0.24048815  0.21542091    -0.55400
C806        C  0.74159495  0.26604841  0.12913636     0.77300
O807        O  0.79223576  0.18639857  0.21490884    -0.56500
C808        C  0.67433827  0.21434740  0.22874746     0.77200
C809        C  0.71426934  0.16142392  0.12927540     0.79600
Cd810      Cd  0.73479263  0.21358287  0.17975713     1.37500
O811        O  0.71379353  0.26527305  0.14929551    -0.55400
O812        O  0.69043973  0.18456531  0.13337481    -0.54200
C813        C  0.80743775  0.21238626  0.22869861     0.79600
O814        O  0.74759599  0.16205539  0.14847727    -0.56500
O815        O  0.76638121  0.24279704  0.13244287    -0.55000
O816        O  0.69012999  0.18810075  0.21955629    -0.55000
O817        O  0.78936626  0.23870112  0.21986840    -0.54200
O818        O  0.77269994  0.29334495  0.08299077    -0.55400
C819        C  0.81216736  0.34425776  0.00348981     0.77300
O820        O  0.69428202  0.37220589  0.01735365    -0.56500
C821        C  0.74493483  0.29260175  0.10319005     0.77200
C822        C  0.77226559  0.39722169  0.10297803     0.79600
Cd823      Cd  0.75173060  0.34503505  0.05251559     1.37500
O824        O  0.80019190  0.31811958  0.01684317    -0.55400
O825        O  0.79615583  0.37414468  0.09878528    -0.54200
C826        C  0.67907939  0.34622018  0.00355892     0.79600
O827        O  0.73888231  0.39651846  0.08387114    -0.56500
O828        O  0.79636050  0.37050267  0.01266821    -0.55000
O829        O  0.72018078  0.31587628  0.09991003    -0.55000
O830        O  0.69715077  0.31990526  0.01239229    -0.54200
O831        O  0.96224446  0.24042689  0.26440022    -0.55400
C832        C  0.91128955  0.26587020  0.35328860     0.77300
O833        O  0.86131740  0.18598960  0.26451612    -0.56500
C834        C  0.97697939  0.21427063  0.25362217     0.77200
C835        C  0.93583939  0.16068918  0.35303969     0.79600
Cd836      Cd  0.91669721  0.21313705  0.30275005     1.37500
O837        O  0.94001193  0.26377783  0.33425819    -0.55400
O838        O  0.96052271  0.18307675  0.34841176    -0.54200
C839        C  0.84418608  0.21223340  0.25367663     0.79600
O840        O  0.90209816  0.16228506  0.33459236    -0.56500
O841        O  0.88514805  0.24364771  0.34912436    -0.55000
O842        O  0.96395145  0.18786007  0.26538657    -0.55000
O843        O  0.86030582  0.23855080  0.26548254    -0.54200
O844        O  0.87969213  0.29487903  0.39794146    -0.55400
C845        C  0.84285631  0.34433857  0.47860757     0.77300
O846        O  0.95843364  0.37262228  0.46787098    -0.56500
C847        C  0.90842667  0.29275372  0.37892831     0.77200
C848        C  0.88406251  0.39798803  0.37920640     0.79600
Cd849      Cd  0.90313767  0.34549946  0.42947799     1.37500
O850        O  0.85761349  0.31818639  0.46784040    -0.55400
O851        O  0.85928222  0.37571116  0.38396490    -0.54200
C852        C  0.97566420  0.34637985  0.47857168     0.79600
O853        O  0.91787380  0.39626657  0.39751436    -0.56500
O854        O  0.85586402  0.37075251  0.46683177    -0.55000
O855        O  0.93460405  0.31494526  0.38311257    -0.55000
O856        O  0.95964062  0.32007277  0.46661984    -0.54200
N857        N  0.82256505  0.57954934  0.24187666    -0.34200
N858        N  0.80545899  0.52905949  0.18653144    -0.54700
N859        N  0.83107197  0.47921171  0.24042271    -0.34100
N860        N  0.84820170  0.52970156  0.29576210    -0.54700
C861        C  0.81473967  0.59872741  0.21221222     0.29400
C862        C  0.83757354  0.59905810  0.26958160     0.29400
C863        C  0.81607807  0.45970364  0.21270856     0.29400
C864        C  0.83887036  0.46003417  0.27009429     0.29400
C865        C  0.79575512  0.55542602  0.16551775     0.38100
C866        C  0.79859811  0.50249294  0.16514599     0.38100
C867        C  0.85507086  0.55627088  0.31714076     0.38100
C868        C  0.85787069  0.50333591  0.31678830     0.38100
C869        C  0.82390854  0.63093375  0.22147606    -0.19400
C870        C  0.83828849  0.63113762  0.25752811    -0.19400
C871        C  0.81535926  0.42762505  0.22476165    -0.19400
C872        C  0.82971017  0.42782900  0.26082126    -0.19400
C873        C  0.78274116  0.54554146  0.13046416    -0.20500
C874        C  0.78460547  0.51206682  0.13021383    -0.20500
C875        C  0.86905684  0.54670208  0.35207616    -0.20500
C876        C  0.87089148  0.51322615  0.35183834    -0.20500
C877        C  0.79955085  0.58834951  0.17694382    -0.15800
C878        C  0.85062778  0.58909348  0.30550290    -0.15800
C879        C  0.85401741  0.47040904  0.30537993    -0.15800
C880        C  0.80301873  0.46966755  0.17678383    -0.15800
H881        H  0.82103253  0.65214898  0.20397849     0.17100
H882        H  0.84850473  0.65254391  0.27298613     0.17100
H883        H  0.80515266  0.40621872  0.20929968     0.17100
H884        H  0.83257093  0.40661306  0.27831802     0.17100
H885        H  0.77309240  0.56083427  0.10737429     0.15400
H886        H  0.77622009  0.49656527  0.10699832     0.15400
H887        H  0.87744234  0.56220699  0.37528905     0.15400
H888        H  0.88051681  0.49793589  0.37493614     0.15400
H889        H  0.81521400  0.55511111  0.24374698     0.28600
H890        H  0.83841141  0.50365255  0.23855847     0.28600
N891        N  0.98884110  0.07945662  0.49181554    -0.34200
N892        N  0.68113366  0.02960400  0.04570663    -0.54700
N893        N  0.99736739  0.97912608  0.49035552    -0.34100
N894        N  0.97176130  0.02897898  0.43645843    -0.54700
C895        C  0.67049155  0.09896044  0.01953628     0.29400
C896        C  0.98106967  0.09863802  0.46214388     0.29400
C897        C  0.67184516  0.95994609  0.02002317     0.29400
C898        C  0.98233733  0.95962383  0.46265039     0.29400
C899        C  0.68799035  0.05616968  0.06709277     0.38100
C900        C  0.69085928  0.00323916  0.06671682     0.38100
C901        C  0.96212411  0.05534738  0.41542753     0.38100
C902        C  0.96490554  0.00241160  0.41507459     0.38100
C903        C  0.67123117  0.13103918  0.00748724    -0.19400
C904        C  0.99023881  0.13084000  0.47142283    -0.19400
C905        C  0.66265040  0.92774545  0.01075899    -0.19400
C906        C  0.98159757  0.92754709  0.47470760    -0.19400
C907        C  0.70201123  0.04659806  0.10201927    -0.20500
C908        C  0.70389331  0.01312468  0.10176589    -0.20500
C909        C  0.94915212  0.04546262  0.38036499    -0.20500
C910        C  0.95097386  0.01198543  0.38012729    -0.20500
C911        C  0.68353842  0.08899320  0.05546095    -0.15800
C912        C  0.96594521  0.08827094  0.42685074    -0.15800
C913        C  0.96929174  0.96958762  0.42672331    -0.15800
C914        C  0.68703880  0.97031582  0.05529652    -0.15800
H915        H  0.68144315  0.15244170  0.02295360     0.17100
H916        H  0.98740568  0.15205634  0.45392569     0.17100
H917        H  0.66551172  0.90653013  0.02825681     0.17100
H918        H  0.97136383  0.90614470  0.45925133     0.17100
H919        H  0.71040083  0.06210035  0.12523355     0.15400
H920        H  0.71355922  0.99783319  0.12485240     0.15400
H921        H  0.93955983  0.06075665  0.35726188     0.15400
H922        H  0.94260943  0.99648292  0.35690812     0.15400
H923        H  0.98149150  0.05501625  0.49367601     0.28600
H924        H  0.00473704  0.00356135  0.48848326     0.28600
C925        C  0.86504042  0.44528288  0.33216677    -0.10800
C926        C  0.87411281  0.42398461  0.35394636    -0.12400
C927        C  0.95490883  0.11340305  0.40007561    -0.10800
C928        C  0.94581842  0.13470291  0.37830376    -0.12400
C929        C  0.78263768  0.42299570  0.12848345    -0.10800
C930        C  0.79178937  0.44428730  0.15029197    -0.12400
C931        C  0.70389223  0.13565738  0.10376847    -0.10800
C932        C  0.69474451  0.11437040  0.08195703    -0.12400
C933        C  0.87088243  0.63575447  0.35383011    -0.10800
C934        C  0.86179329  0.61447178  0.33200220    -0.12400
C935        C  0.94896466  0.92291987  0.37841099    -0.10800
C936        C  0.95807814  0.94420837  0.40023035    -0.12400
C937        C  0.77928882  0.63475336  0.12841465    -0.10800
C938        C  0.78842486  0.61347064  0.15018912    -0.12200
C939        C  0.70724632  0.92391185  0.10385326    -0.10800
C940        C  0.69812951  0.94519168  0.08206494    -0.12400
O941        O  0.71293478  0.79486676  0.64784186    -0.55400
C942        C  0.67597487  0.84431286  0.72849899     0.77300
O943        O  0.79155083  0.87260046  0.71785207    -0.56500
C944        C  0.74172978  0.79274518  0.62889943     0.77200
C945        C  0.71721023  0.89793902  0.62913548     0.79600
Cd946      Cd  0.73629402  0.84548199  0.67942441     1.37500
O947        O  0.69057308  0.81815677  0.71756719    -0.55400
O948        O  0.69231939  0.87581749  0.63414130    -0.54200
C949        C  0.80873119  0.84634985  0.72860006     0.79600
O950        O  0.75113881  0.89608304  0.64721547    -0.56500
O951        O  0.68915883  0.87073782  0.71690903    -0.55000
O952        O  0.76789169  0.81494420  0.63313170    -0.55000
O953        O  0.79266994  0.82004415  0.71668952    -0.54200
O954        O  0.79589174  0.74040904  0.51463330    -0.55400
C955        C  0.74467592  0.76585505  0.60328861     0.77300
O956        O  0.69486386  0.68597431  0.51451590    -0.56500
C957        C  0.81047658  0.71425223  0.50369271     0.77200
C958        C  0.76931167  0.66071404  0.60312937     0.79600
Cd959      Cd  0.75019690  0.71311160  0.55280125     1.37500
O960        O  0.77349372  0.76372733  0.58437369    -0.55400
O961        O  0.79412060  0.68293693  0.59825534    -0.54200
C962        C  0.67776213  0.71222991  0.50367040     0.79600
O963        O  0.73545584  0.66244814  0.58490319    -0.56500
O964        O  0.71850972  0.74365928  0.59903799    -0.55000
O965        O  0.79729684  0.68782792  0.51528831    -0.55000
O966        O  0.69390039  0.73854052  0.51547385    -0.54200
O967        O  0.93921783  0.79327135  0.83282369    -0.55400
C968        C  0.97860966  0.84422285  0.75336985     0.77300
O969        O  0.86078488  0.87217135  0.76725380    -0.56500
C970        C  0.91157263  0.79258505  0.85315570     0.77200
C971        C  0.93864877  0.89715327  0.85288746     0.79600
Cd972      Cd  0.91819851  0.84497830  0.80241821     1.37500
O973        O  0.96651389  0.81806711  0.76659029    -0.55400
O974        O  0.96257476  0.87409918  0.84870221    -0.54200
C975        C  0.84548702  0.84617864  0.75356839     0.79600
O976        O  0.90528069  0.89643549  0.83375711    -0.56500
O977        O  0.96292426  0.87047582  0.76268089    -0.55000
O978        O  0.88685508  0.81588669  0.84996069    -0.55000
O979        O  0.86348739  0.81984794  0.76247052    -0.54200
O980        O  0.88068372  0.76538759  0.89949862    -0.55400
C981        C  0.84117321  0.71434995  0.97882409     0.77300
O982        O  0.91446723  0.66210238  0.89865780    -0.56500
C983        C  0.90832019  0.76606591  0.87915681     0.77200
C984        C  0.97434285  0.71240672  0.97870661     0.79600
Cd985      Cd  0.90164689  0.71364445  0.92984957     1.37500
O986        O  0.85332731  0.74051815  0.96567954    -0.55400
O987        O  0.95631838  0.73873758  0.96985661    -0.54200
C988        C  0.88119820  0.66150791  0.87936139     0.79600
O989        O  0.95907620  0.68642454  0.96496678    -0.56500
O990        O  0.85681667  0.68809892  0.96945716    -0.55000
O991        O  0.93301787  0.74274877  0.88233044    -0.55000
O992        O  0.85737588  0.68467380  0.88338457    -0.54200
O993        O  0.68633845  0.24048834  0.71542113    -0.55400
C994        C  0.74159472  0.26604840  0.62913643     0.77300
O995        O  0.79223612  0.18639853  0.71490828    -0.56500
C996        C  0.67433855  0.21434766  0.72874798     0.77200
C997        C  0.71426934  0.16142372  0.62927547     0.79600
Cd998      Cd  0.73479247  0.21358274  0.67975717     1.37500
O999        O  0.71379311  0.26527288  0.64929535    -0.55400
O1000       O  0.69043970  0.18456509  0.63337490    -0.54200
C1001       C  0.80743776  0.21238613  0.72869861     0.79600
O1002       O  0.74759593  0.16205513  0.64847747    -0.56500
O1003       O  0.76638105  0.24279710  0.63244306    -0.55000
O1004       O  0.69013029  0.18810098  0.71955693    -0.55000
O1005       O  0.78936589  0.23870093  0.71986889    -0.54200
O1006       O  0.77269976  0.29334491  0.58299080    -0.55400
C1007       C  0.81216774  0.34425781  0.50349001     0.77300
O1008       O  0.69428213  0.37220643  0.51735387    -0.56500
C1009       C  0.74493475  0.29260183  0.60319019     0.77200
C1010       C  0.77226590  0.39722153  0.60297837     0.79600
Cd1011     Cd  0.75173079  0.34503514  0.55251579     1.37500
O1012       O  0.80019191  0.31811961  0.51684304    -0.55400
O1013       O  0.79615650  0.37414486  0.59878520    -0.54200
C1014       C  0.67907949  0.34622076  0.50355902     0.79600
O1015       O  0.73888242  0.39651801  0.58387188    -0.56500
O1016       O  0.79636142  0.37050278  0.51266892    -0.55000
O1017       O  0.72018091  0.31587649  0.59991031    -0.55000
O1018       O  0.69715091  0.31990584  0.51239230    -0.54200
O1019       O  0.96224492  0.24042680  0.76440097    -0.55400
C1020       C  0.91128957  0.26587032  0.85328862     0.77300
O1021       O  0.86131725  0.18598939  0.76451634    -0.56500
C1022       C  0.97697942  0.21427058  0.75362239     0.77200
C1023       C  0.93583986  0.16068910  0.85303977     0.79600
Cd1024     Cd  0.91669713  0.21313689  0.80275027     1.37500
O1025       O  0.94001192  0.26377788  0.83425817    -0.55400
O1026       O  0.96052324  0.18307651  0.84841140    -0.54200
C1027       C  0.84418605  0.21223321  0.75367674     0.79600
O1028       O  0.90209830  0.16228517  0.83459302    -0.56500
O1029       O  0.88514817  0.24364774  0.84912457    -0.55000
O1030       O  0.96395094  0.18785996  0.76538622    -0.55000
O1031       O  0.86030585  0.23855059  0.76548270    -0.54200
O1032       O  0.87969225  0.29487906  0.89794164    -0.55400
C1033       C  0.84285612  0.34433858  0.97860760     0.77300
O1034       O  0.95843363  0.37262211  0.96787114    -0.56500
C1035       C  0.90842660  0.29275395  0.87892823     0.77200
C1036       C  0.88406257  0.39798823  0.87920686     0.79600
Cd1037     Cd  0.90313757  0.34549952  0.92947819     1.37500
O1038       O  0.85761372  0.31818645  0.96784072    -0.55400
O1039       O  0.85928220  0.37571144  0.88396542    -0.54200
C1040       C  0.97566425  0.34637966  0.97857167     0.79600
O1041       O  0.91787385  0.39626676  0.89751485    -0.56500
O1042       O  0.85586355  0.37075256  0.96683165    -0.55000
O1043       O  0.93460371  0.31494572  0.88311223    -0.55000
O1044       O  0.95964062  0.32007260  0.96661978    -0.54200
N1045       N  0.82256511  0.57954916  0.74187678    -0.34200
N1046       N  0.80545938  0.52905937  0.68653151    -0.54700
N1047       N  0.83107197  0.47921149  0.74042293    -0.34100
N1048       N  0.84820149  0.52970138  0.79576233    -0.54700
C1049       C  0.81473986  0.59872724  0.71221232     0.29400
C1050       C  0.83757334  0.59905791  0.76958180     0.29400
C1051       C  0.81607805  0.45970349  0.71270880     0.29400
C1052       C  0.83887045  0.46003398  0.77009448     0.29400
C1053       C  0.79575528  0.55542589  0.66551786     0.38100
C1054       C  0.79859816  0.50249278  0.66514614     0.38100
C1055       C  0.85507072  0.55627068  0.81714098     0.38100
C1056       C  0.85787080  0.50333574  0.81678844     0.38100
C1057       C  0.82390867  0.63093354  0.72147622    -0.19400
C1058       C  0.83828833  0.63113741  0.75752831    -0.19400
C1059       C  0.81535932  0.42762493  0.72476188    -0.19400
C1060       C  0.82971032  0.42782883  0.76082144    -0.19400
C1061       C  0.78274092  0.54554131  0.63046436    -0.20500
C1062       C  0.78460511  0.51206667  0.63021408    -0.20500
C1063       C  0.86905713  0.54670189  0.85207628    -0.20500
C1064       C  0.87089190  0.51322597  0.85183843    -0.20500
C1065       C  0.79955106  0.58834939  0.67694393    -0.15800
C1066       C  0.85062738  0.58909327  0.80550317    -0.15800
C1067       C  0.85401756  0.47040889  0.80538009    -0.15800
C1068       C  0.80301873  0.46966742  0.67678405    -0.15800
H1069       H  0.82103282  0.65214880  0.70397861     0.17100
H1070       H  0.84850446  0.65254374  0.77298637     0.17100
H1071       H  0.80515281  0.40621854  0.70929985     0.17100
H1072       H  0.83257120  0.40661284  0.77831818     0.17100
H1073       H  0.77309199  0.56083412  0.60737456     0.15400
H1074       H  0.77621940  0.49656510  0.60699864     0.15400
H1075       H  0.87744283  0.56220677  0.87528917     0.15400
H1076       H  0.88051751  0.49793572  0.87493613     0.15400
H1077       H  0.81521406  0.55511091  0.74374707     0.28600
H1078       H  0.83841138  0.50365238  0.73855872     0.28600
N1079       N  0.98884153  0.07945661  0.99181550    -0.34200
N1080       N  0.68113344  0.02960389  0.54570659    -0.54700
N1081       N  0.99736752  0.97912584  0.99035548    -0.34100
N1082       N  0.97176116  0.02897883  0.93645842    -0.54700
C1083       C  0.67049162  0.09896027  0.51953620     0.29400
C1084       C  0.98106993  0.09863802  0.96214386     0.29400
C1085       C  0.67184499  0.95994612  0.52002314     0.29400
C1086       C  0.98233732  0.95962364  0.96265038     0.29400
C1087       C  0.68799029  0.05616956  0.56709270     0.38100
C1088       C  0.69085925  0.00323903  0.56671675     0.38100
C1089       C  0.96212441  0.05534728  0.91542748     0.38100
C1090       C  0.96490531  0.00241143  0.91507459     0.38100
C1091       C  0.67123152  0.13103897  0.50748706    -0.19400
C1092       C  0.99023866  0.13084010  0.97142288    -0.19400
C1093       C  0.66264965  0.92774558  0.51075900    -0.19400
C1094       C  0.98159770  0.92754692  0.97470766    -0.19400
C1095       C  0.70201138  0.04659794  0.60201915    -0.20500
C1096       C  0.70389355  0.01312454  0.60176577    -0.20500
C1097       C  0.94915252  0.04546255  0.88036492    -0.20500
C1098       C  0.95097392  0.01198534  0.88012726    -0.20500
C1099       C  0.68353835  0.08899308  0.55546088    -0.15800
C1100       C  0.96594560  0.08827087  0.92685071    -0.15800
C1101       C  0.96929137  0.96958743  0.92672335    -0.15800
C1102       C  0.68703877  0.97031573  0.55529644    -0.15800
H1103       H  0.68144375  0.15244148  0.52295339     0.17100
H1104       H  0.98740515  0.15205644  0.95392586     0.17100
H1105       H  0.66551040  0.90653027  0.52825686     0.17100
H1106       H  0.97136385  0.90614449  0.95925141     0.17100
H1107       H  0.71040101  0.06210024  0.62523341     0.15400
H1108       H  0.71355965  0.99783306  0.62485217     0.15400
H1109       H  0.93956047  0.06075663  0.85726175     0.15400
H1110       H  0.94260950  0.99648283  0.85690802     0.15400
H1111       H  0.98149222  0.05501619  0.99367589     0.28600
H1112       H  0.00473692  0.00356120  0.98848322     0.28600
C1113       C  0.86504070  0.44528278  0.83216691    -0.10800
C1114       C  0.87411302  0.42398464  0.85394666    -0.12400
C1115       C  0.95490931  0.11340296  0.90007560    -0.10800
C1116       C  0.94581905  0.13470283  0.87830370    -0.12400
C1117       C  0.78263782  0.42299553  0.62848378    -0.10800
C1118       C  0.79178931  0.44428717  0.65029225    -0.12400
C1119       C  0.70389231  0.13565724  0.60376843    -0.10800
C1120       C  0.69474453  0.11437028  0.58195694    -0.12400
C1121       C  0.87088200  0.63575407  0.85383055    -0.10800
C1122       C  0.86179275  0.61447150  0.83200253    -0.12400
C1123       C  0.94896411  0.92291975  0.87841101    -0.10800
C1124       C  0.95807761  0.94420817  0.90023044    -0.12400
C1125       C  0.77928835  0.63475340  0.62841508    -0.10800
C1126       C  0.78842471  0.61347059  0.65018937    -0.12200
C1127       C  0.70724651  0.92391161  0.60385299    -0.10800
C1128       C  0.69812959  0.94519148  0.58206475    -0.12400
loop_ 
_geom_bond_atom_site_label_1 
_geom_bond_atom_site_label_2 
_geom_bond_distance 
_geom_bond_site_symmetry_2 
_ccdc_geom_bond_type 
O1            C4   1.266       .  A
O1           Cd6   2.466       .  S
C2           O11   1.263       .  A
C2            O7   1.264       .  A
C2          C780   1.464   1_455  S
O3            C9   1.265       .  A
O3           Cd6   2.482       .  S
C4           O12   1.265       .  A
C4           C15   1.465       .  S
C5           O10   1.265       .  A
C5            O8   1.263       .  A
C5          C187   1.434       .  S
Cd6          O13   2.459       .  S
Cd6          O12   2.463       .  S
Cd6          O11   2.457       .  S
Cd6           O7   2.476       .  S
Cd6          O10   2.470       .  S
Cd6           O8   2.454       .  S
C9           O13   1.263       .  A
C9           C35   1.465       .  S
O14          C17   1.264       .  A
O14         Cd19   2.475       .  S
C15          O24   1.265       .  A
C15          O20   1.266       .  A
O16          C22   1.265       .  A
O16         Cd19   2.481       .  S
C17          O25   1.263       .  A
C17         C229   1.464   1_554  S
C18          O23   1.265       .  A
C18          O21   1.263       .  A
C18         C185   1.433       .  S
Cd19         O26   2.458       .  S
Cd19         O25   2.457       .  S
Cd19         O24   2.463       .  S
Cd19         O20   2.465       .  S
Cd19         O23   2.470       .  S
Cd19         O21   2.454       .  S
C22          O26   1.263       .  A
C22         C984   1.465   1_454  S
O27          C30   1.265       .  A
O27         Cd32   2.466       .  S
C28          O37   1.263       .  A
C28          O33   1.264       .  A
C28         C378   1.464       .  S
O29          C35   1.264       .  A
O29         Cd32   2.479       .  S
C30          O38   1.265       .  A
C30          C43   1.465       .  S
C31          O36   1.264       .  A
C31          O34   1.264       .  A
C31         C183   1.435       .  S
Cd32         O39   2.463       .  S
Cd32         O38   2.464       .  S
Cd32         O37   2.459       .  S
Cd32         O33   2.477       .  S
Cd32         O36   2.468       .  S
Cd32         O34   2.459       .  S
C35          O39   1.263       .  A
O40          C43   1.265       .  A
O40         Cd45   2.466       .  S
C41          O50   1.263       .  A
C41          O46   1.264       .  A
C41         C205   1.464       .  S
O42          C48   1.264       .  A
O42         Cd45   2.468       .  S
C43          O51   1.265       .  A
C44          O49   1.264       .  A
C44          O47   1.263       .  A
C44         C586   1.465       .  S
Cd45         O52   2.459       .  S
Cd45         O51   2.464       .  S
Cd45         O50   2.459       .  S
Cd45         O46   2.476       .  S
Cd45         O49   2.479       .  S
Cd45         O47   2.462       .  S
C48          O52   1.263       .  A
C48         C181   1.434       .  S
O53          C56   1.264       .  A
O53         Cd58   2.476       .  S
C54          O63   1.265       .  A
C54          O59   1.265       .  A
C54          C69   1.465       .  S
O55          C61   1.264       .  A
O55         Cd58   2.480       .  S
C56          O64   1.263       .  A
C56         C834   1.464   1_455  S
C57          O62   1.264       .  A
C57          O60   1.263       .  A
C57         C179   1.434       .  S
Cd58         O65   2.462       .  S
Cd58         O64   2.459       .  S
Cd58         O63   2.464       .  S
Cd58         O59   2.466       .  S
Cd58         O62   2.469       .  S
Cd58         O60   2.459       .  S
C61          O65   1.263       .  A
C61          C87   1.465       .  S
O66          C69   1.265       .  A
O66         Cd71   2.466       .  S
C67          O76   1.263       .  A
C67          O72   1.264       .  A
C67         C281   1.464   1_554  S
O68          C74   1.264       .  A
O68         Cd71   2.480       .  S
C69          O77   1.265       .  A
C70          O75   1.264       .  A
C70          O73   1.263       .  A
C70         C177   1.435       .  S
Cd71         O78   2.463       .  S
Cd71         O77   2.465       .  S
Cd71         O76   2.459       .  S
Cd71         O72   2.477       .  S
Cd71         O75   2.469       .  S
Cd71         O73   2.460       .  S
C74          O78   1.263       .  A
C74        C1040   1.465   1_454  S
O79          C82   1.264       .  A
O79         Cd84   2.476       .  S
C80          O89   1.265       .  A
C80          O85   1.266       .  A
C80          C95   1.465       .  S
O81          C87   1.265       .  A
O81         Cd84   2.482       .  S
C82          O90   1.263       .  A
C82         C432   1.464       .  S
C83          O88   1.265       .  A
C83          O86   1.263       .  A
C83         C176   1.434       .  S
Cd84         O91   2.459       .  S
Cd84         O90   2.458       .  S
Cd84         O89   2.464       .  S
Cd84         O85   2.465       .  S
Cd84         O88   2.470       .  S
Cd84         O86   2.455       .  S
C87          O91   1.263       .  A
O92          C95   1.266       .  A
O92         Cd97   2.466       .  S
C93         O102   1.263       .  A
C93          O98   1.264       .  A
C93         C255   1.464       .  S
O94         C100   1.265       .  A
O94         Cd97   2.482       .  S
C95         O103   1.265       .  A
C96         O101   1.265       .  A
C96          O99   1.263       .  A
C96         C174   1.434       .  S
Cd97        O104   2.459       .  S
Cd97        O103   2.463       .  S
Cd97        O102   2.457       .  S
Cd97         O98   2.476       .  S
Cd97        O101   2.471       .  S
Cd97         O99   2.455       .  S
C100        O104   1.263       .  A
C100        C638   1.465       .  S
N105        C110   1.355       .  A
N105        C109   1.355       .  A
N105        H137   1.034       .  S
N106        C113   1.351       .  A
N106        C114   1.351       .  A
N107        C112   1.355       .  A
N107        C111   1.355       .  A
N107        H138   1.034       .  S
N108        C115   1.351       .  A
N108        C116   1.351       .  A
C109        C117   1.388       .  A
C109        C125   1.418       .  A
C110        C126   1.418       .  A
C110        C118   1.388       .  A
C111        C119   1.388       .  A
C111        C128   1.418       .  A
C112        C127   1.418       .  A
C112        C120   1.388       .  A
C113        C125   1.414       .  A
C113        C121   1.387       .  A
C114        C128   1.414       .  A
C114        C122   1.387       .  A
C115        C123   1.387       .  A
C115        C126   1.414       .  A
C116        C124   1.387       .  A
C116        C127   1.414       .  A
C117        C118   1.373       .  A
C117        H129   1.082       .  S
C118        H130   1.082       .  S
C119        C120   1.373       .  A
C119        H131   1.082       .  S
C120        H132   1.082       .  S
C121        C122   1.371       .  A
C121        H133   1.082       .  S
C122        H134   1.082       .  S
C123        C124   1.371       .  A
C123        H135   1.082       .  S
C124        H136   1.082       .  S
C125        C186   1.450       .  S
C126        C182   1.451       .  S
C127        C173   1.450       .  S
C128        C178   1.452       .  S
N139        C144   1.355       .  A
N139        C707   1.355       .  A
N139        H171   1.034       .  S
N140        C147   1.351       .  A
N140        C148   1.351       .  A
N141        C146   1.355       .  A
N141        C709   1.355       .  A
N141        H172   1.034   1_565  S
N142        C149   1.351       .  A
N142        C150   1.351       .  A
C143       N1079   1.355   1_454  A
C143        C151   1.388       .  A
C143        C159   1.418       .  A
C144        C160   1.418       .  A
C144        C152   1.388       .  A
C145       N1081   1.355   1_454  A
C145        C153   1.388   1_455  A
C145        C162   1.418       .  A
C146        C161   1.418       .  A
C146        C154   1.388       .  A
C147        C159   1.414       .  A
C147        C155   1.387       .  A
C148        C162   1.414   1_545  A
C148        C156   1.387       .  A
C149        C157   1.387       .  A
C149        C160   1.414       .  A
C150        C158   1.387       .  A
C150        C161   1.414   1_545  A
C151       C1092   1.373   1_454  A
C151        H163   1.082       .  S
C152        C715   1.373       .  A
C152        H164   1.082       .  S
C153       C1094   1.373   1_554  A
C153        H165   1.082       .  S
C154        C717   1.373       .  A
C154        H166   1.082       .  S
C155        C156   1.371       .  A
C155        H167   1.082       .  S
C156        H168   1.082   1_545  S
C157        C158   1.371       .  A
C157        H169   1.082       .  S
C158        H170   1.082   1_545  S
C159        C180   1.451       .  S
C160        C175   1.450       .  S
C161        C184   1.451       .  S
C162        C188   1.450       .  S
C173        C174   1.205       .  T
C175        C176   1.205       .  T
C177        C178   1.206       .  T
C179        C180   1.206       .  T
C181        C182   1.206       .  T
C183        C184   1.206       .  T
C185        C186   1.205       .  T
C187        C188   1.205       .  T
O189        C192   1.266       .  A
O189       Cd194   2.466       .  S
C190        O199   1.263       .  A
C190        O195   1.264       .  A
C190        C968   1.464   1_455  S
O191        C197   1.265       .  A
O191       Cd194   2.482       .  S
C192        O200   1.265       .  A
C192        C203   1.465       .  S
C193        O198   1.265       .  A
C193        O196   1.263       .  A
C193        C375   1.434       .  S
Cd194       O201   2.459       .  S
Cd194       O200   2.463       .  S
Cd194       O199   2.457       .  S
Cd194       O195   2.476       .  S
Cd194       O198   2.470       .  S
Cd194       O196   2.454       .  S
C197        O201   1.263       .  A
C197        C223   1.465       .  S
O202        C205   1.264       .  A
O202       Cd207   2.475       .  S
C203        O212   1.265       .  A
C203        O208   1.266       .  A
O204        C210   1.265       .  A
O204       Cd207   2.481       .  S
C205        O213   1.263       .  A
C206        O211   1.265       .  A
C206        O209   1.263       .  A
C206        C373   1.433       .  S
Cd207       O214   2.458       .  S
Cd207       O213   2.457       .  S
Cd207       O212   2.463       .  S
Cd207       O208   2.465       .  S
Cd207       O211   2.470       .  S
Cd207       O209   2.454       .  S
C210        O214   1.263       .  A
C210        C796   1.465   1_455  S
O215        C218   1.265       .  A
O215       Cd220   2.466       .  S
C216        O225   1.263       .  A
C216        O221   1.264       .  A
C216        C566   1.464       .  S
O217        C223   1.264       .  A
O217       Cd220   2.479       .  S
C218        O226   1.265       .  A
C218        C231   1.465       .  S
C219        O224   1.264       .  A
C219        O222   1.264       .  A
C219        C371   1.435       .  S
Cd220       O227   2.463       .  S
Cd220       O226   2.464       .  S
Cd220       O225   2.459       .  S
Cd220       O221   2.477       .  S
Cd220       O224   2.468       .  S
Cd220       O222   2.459       .  S
C223        O227   1.263       .  A
O228        C231   1.265       .  A
O228       Cd233   2.466       .  S
C229        O238   1.263       .  A
C229        O234   1.264       .  A
O230        C236   1.264       .  A
O230       Cd233   2.468       .  S
C231        O239   1.265       .  A
C232        O237   1.264       .  A
C232        O235   1.263       .  A
C232        C398   1.465   1_556  S
Cd233       O240   2.459       .  S
Cd233       O239   2.464       .  S
Cd233       O238   2.459       .  S
Cd233       O234   2.476       .  S
Cd233       O237   2.479       .  S
Cd233       O235   2.462       .  S
C236        O240   1.263       .  A
C236        C369   1.434       .  S
O241        C244   1.264       .  A
O241       Cd246   2.476       .  S
C242        O251   1.265       .  A
C242        O247   1.265       .  A
C242        C257   1.465       .  S
O243        C249   1.264       .  A
O243       Cd246   2.480       .  S
C244        O252   1.263       .  A
C244       C1022   1.464   1_455  S
C245        O250   1.264       .  A
C245        O248   1.263       .  A
C245        C367   1.434       .  S
Cd246       O253   2.462       .  S
Cd246       O252   2.459       .  S
Cd246       O251   2.464       .  S
Cd246       O247   2.466       .  S
Cd246       O250   2.469       .  S
Cd246       O248   2.459       .  S
C249        O253   1.263       .  A
C249        C275   1.465       .  S
O254        C257   1.265       .  A
O254       Cd259   2.466       .  S
C255        O264   1.263       .  A
C255        O260   1.264       .  A
O256        C262   1.264       .  A
O256       Cd259   2.480       .  S
C257        O265   1.265       .  A
C258        O263   1.264       .  A
C258        O261   1.263       .  A
C258        C365   1.435       .  S
Cd259       O266   2.463       .  S
Cd259       O265   2.465       .  S
Cd259       O264   2.459       .  S
Cd259       O260   2.477       .  S
Cd259       O263   2.469       .  S
Cd259       O261   2.460       .  S
C262        O266   1.263       .  A
C262        C852   1.465   1_455  S
O267        C270   1.264       .  A
O267       Cd272   2.476       .  S
C268        O277   1.265       .  A
C268        O273   1.266       .  A
C268        C283   1.465       .  S
O269        C275   1.265       .  A
O269       Cd272   2.482       .  S
C270        O278   1.263       .  A
C270        C620   1.464       .  S
C271        O276   1.265       .  A
C271        O274   1.263       .  A
C271        C364   1.434       .  S
Cd272       O279   2.459       .  S
Cd272       O278   2.458       .  S
Cd272       O277   2.464       .  S
Cd272       O273   2.465       .  S
Cd272       O276   2.470       .  S
Cd272       O274   2.455       .  S
C275        O279   1.263       .  A
O280        C283   1.266       .  A
O280       Cd285   2.466       .  S
C281        O290   1.263       .  A
C281        O286   1.264       .  A
O282        C288   1.265       .  A
O282       Cd285   2.482       .  S
C283        O291   1.265       .  A
C284        O289   1.265       .  A
C284        O287   1.263       .  A
C284        C362   1.434       .  S
Cd285       O292   2.459       .  S
Cd285       O291   2.463       .  S
Cd285       O290   2.457       .  S
Cd285       O286   2.476       .  S
Cd285       O289   2.471       .  S
Cd285       O287   2.455       .  S
C288        O292   1.263       .  A
C288        C450   1.465   1_556  S
N293        C298   1.355       .  A
N293        C297   1.355       .  A
N293        H325   1.034       .  S
N294        C301   1.351       .  A
N294        C302   1.351       .  A
N295        C300   1.355       .  A
N295        C299   1.355       .  A
N295        H326   1.034       .  S
N296        C303   1.351       .  A
N296        C304   1.351       .  A
C297        C305   1.388       .  A
C297        C313   1.418       .  A
C298        C314   1.418       .  A
C298        C306   1.388       .  A
C299        C307   1.388       .  A
C299        C316   1.418       .  A
C300        C315   1.418       .  A
C300        C308   1.388       .  A
C301        C313   1.414       .  A
C301        C309   1.387       .  A
C302        C316   1.414       .  A
C302        C310   1.387       .  A
C303        C311   1.387       .  A
C303        C314   1.414       .  A
C304        C312   1.387       .  A
C304        C315   1.414       .  A
C305        C306   1.373       .  A
C305        H317   1.082       .  S
C306        H318   1.082       .  S
C307        C308   1.373       .  A
C307        H319   1.082       .  S
C308        H320   1.082       .  S
C309        C310   1.371       .  A
C309        H321   1.082       .  S
C310        H322   1.082       .  S
C311        C312   1.371       .  A
C311        H323   1.082       .  S
C312        H324   1.082       .  S
C313        C374   1.450       .  S
C314        C370   1.451       .  S
C315        C361   1.450       .  S
C316        C366   1.452       .  S
N327        C332   1.355       .  A
N327        C519   1.355   1_556  A
N327        H359   1.034       .  S
N328        C335   1.351       .  A
N328        C336   1.351       .  A
N329        C334   1.355       .  A
N329        C521   1.355   1_556  A
N329        H360   1.034   1_565  S
N330        C337   1.351       .  A
N330        C338   1.351       .  A
C331        N891   1.355   1_455  A
C331        C339   1.388       .  A
C331        C347   1.418       .  A
C332        C348   1.418       .  A
C332        C340   1.388       .  A
C333        N893   1.355   1_455  A
C333        C341   1.388   1_455  A
C333        C350   1.418       .  A
C334        C349   1.418       .  A
C334        C342   1.388       .  A
C335        C347   1.414       .  A
C335        C343   1.387       .  A
C336        C350   1.414   1_545  A
C336        C344   1.387       .  A
C337        C345   1.387       .  A
C337        C348   1.414       .  A
C338        C346   1.387       .  A
C338        C349   1.414   1_545  A
C339        C904   1.373   1_455  A
C339        H351   1.082       .  S
C340        C527   1.373   1_556  A
C340        H352   1.082       .  S
C341        C906   1.373       .  A
C341        H353   1.082       .  S
C342        C529   1.373   1_556  A
C342        H354   1.082       .  S
C343        C344   1.371       .  A
C343        H355   1.082       .  S
C344        H356   1.082   1_545  S
C345        C346   1.371       .  A
C345        H357   1.082       .  S
C346        H358   1.082   1_545  S
C347        C368   1.451       .  S
C348        C363   1.450       .  S
C349        C372   1.451       .  S
C350        C376   1.450       .  S
C361        C362   1.205       .  T
C363        C364   1.205       .  T
C365        C366   1.206       .  T
C367        C368   1.206       .  T
C369        C370   1.206       .  T
C371        C372   1.206       .  T
C373        C374   1.205       .  T
C375        C376   1.205       .  T
O377        C380   1.266       .  A
O377       Cd382   2.466       .  S
C378        O387   1.263       .  A
C378        O383   1.264       .  A
O379        C385   1.265       .  A
O379       Cd382   2.482       .  S
C380        O388   1.265       .  A
C380        C391   1.465       .  S
C381        O386   1.265       .  A
C381        O384   1.263       .  A
C381        C563   1.434       .  S
Cd382       O389   2.459       .  S
Cd382       O388   2.463       .  S
Cd382       O387   2.457       .  S
Cd382       O383   2.476       .  S
Cd382       O386   2.470       .  S
Cd382       O384   2.454       .  S
C385        O389   1.263       .  A
C385        C411   1.465       .  S
O390        C393   1.264       .  A
O390       Cd395   2.475       .  S
C391        O400   1.265       .  A
C391        O396   1.266       .  A
O392        C398   1.265       .  A
O392       Cd395   2.481       .  S
C393        O401   1.263       .  A
C393        C605   1.464   1_554  S
C394        O399   1.265       .  A
C394        O397   1.263       .  A
C394        C561   1.433       .  S
Cd395       O402   2.458       .  S
Cd395       O401   2.457       .  S
Cd395       O400   2.463       .  S
Cd395       O396   2.465       .  S
Cd395       O399   2.470       .  S
Cd395       O397   2.454       .  S
C398        O402   1.263       .  A
O403        C406   1.265       .  A
O403       Cd408   2.466       .  S
C404        O413   1.263       .  A
C404        O409   1.264       .  A
C404        C754   1.464       .  S
O405        C411   1.264       .  A
O405       Cd408   2.479       .  S
C406        O414   1.265       .  A
C406        C419   1.465       .  S
C407        O412   1.264       .  A
C407        O410   1.264       .  A
C407        C559   1.435       .  S
Cd408       O415   2.463       .  S
Cd408       O414   2.464       .  S
Cd408       O413   2.459       .  S
Cd408       O409   2.477       .  S
Cd408       O412   2.468       .  S
Cd408       O410   2.459       .  S
C411        O415   1.263       .  A
O416        C419   1.265       .  A
O416       Cd421   2.466       .  S
C417        O426   1.263       .  A
C417        O422   1.264       .  A
C417        C581   1.464       .  S
O418        C424   1.264       .  A
O418       Cd421   2.468       .  S
C419        O427   1.265       .  A
C420        O425   1.264       .  A
C420        O423   1.263       .  A
C420        C962   1.465       .  S
Cd421       O428   2.459       .  S
Cd421       O427   2.464       .  S
Cd421       O426   2.459       .  S
Cd421       O422   2.476       .  S
Cd421       O425   2.479       .  S
Cd421       O423   2.462       .  S
C424        O428   1.263       .  A
C424        C557   1.434       .  S
O429        C432   1.264       .  A
O429       Cd434   2.476       .  S
C430        O439   1.265       .  A
C430        O435   1.265       .  A
C430        C445   1.465       .  S
O431        C437   1.264       .  A
O431       Cd434   2.480       .  S
C432        O440   1.263       .  A
C433        O438   1.264       .  A
C433        O436   1.263       .  A
C433        C555   1.434       .  S
Cd434       O441   2.462       .  S
Cd434       O440   2.459       .  S
Cd434       O439   2.464       .  S
Cd434       O435   2.466       .  S
Cd434       O438   2.469       .  S
Cd434       O436   2.459       .  S
C437        O441   1.263       .  A
C437        C463   1.465       .  S
O442        C445   1.265       .  A
O442       Cd447   2.466       .  S
C443        O452   1.263       .  A
C443        O448   1.264       .  A
C443        C657   1.464   1_554  S
O444        C450   1.264       .  A
O444       Cd447   2.480       .  S
C445        O453   1.265       .  A
C446        O451   1.264       .  A
C446        O449   1.263       .  A
C446        C553   1.435       .  S
Cd447       O454   2.463       .  S
Cd447       O453   2.465       .  S
Cd447       O452   2.459       .  S
Cd447       O448   2.477       .  S
Cd447       O451   2.469       .  S
Cd447       O449   2.460       .  S
C450        O454   1.263       .  A
O455        C458   1.264       .  A
O455       Cd460   2.476       .  S
C456        O465   1.265       .  A
C456        O461   1.266       .  A
C456        C471   1.465       .  S
O457        C463   1.265       .  A
O457       Cd460   2.482       .  S
C458        O466   1.263       .  A
C458        C808   1.464       .  S
C459        O464   1.265       .  A
C459        O462   1.263       .  A
C459        C552   1.434       .  S
Cd460       O467   2.459       .  S
Cd460       O466   2.458       .  S
Cd460       O465   2.464       .  S
Cd460       O461   2.465       .  S
Cd460       O464   2.470       .  S
Cd460       O462   2.455       .  S
C463        O467   1.263       .  A
O468        C471   1.266       .  A
O468       Cd473   2.466       .  S
C469        O478   1.263       .  A
C469        O474   1.264       .  A
C469        C631   1.464       .  S
O470        C476   1.265       .  A
O470       Cd473   2.482       .  S
C471        O479   1.265       .  A
C472        O477   1.265       .  A
C472        O475   1.263       .  A
C472        C550   1.434       .  S
Cd473       O480   2.459       .  S
Cd473       O479   2.463       .  S
Cd473       O478   2.457       .  S
Cd473       O474   2.476       .  S
Cd473       O477   2.471       .  S
Cd473       O475   2.455       .  S
C476        O480   1.263       .  A
C476       C1014   1.465       .  S
N481        C486   1.355       .  A
N481        C485   1.355       .  A
N481        H513   1.034       .  S
N482        C489   1.351       .  A
N482        C490   1.351       .  A
N483        C488   1.355       .  A
N483        C487   1.355       .  A
N483        H514   1.034       .  S
N484        C491   1.351       .  A
N484        C492   1.351       .  A
C485        C493   1.388       .  A
C485        C501   1.418       .  A
C486        C502   1.418       .  A
C486        C494   1.388       .  A
C487        C495   1.388       .  A
C487        C504   1.418       .  A
C488        C503   1.418       .  A
C488        C496   1.388       .  A
C489        C501   1.414       .  A
C489        C497   1.387       .  A
C490        C504   1.414       .  A
C490        C498   1.387       .  A
C491        C499   1.387       .  A
C491        C502   1.414       .  A
C492        C500   1.387       .  A
C492        C503   1.414       .  A
C493        C494   1.373       .  A
C493        H505   1.082       .  S
C494        H506   1.082       .  S
C495        C496   1.373       .  A
C495        H507   1.082       .  S
C496        H508   1.082       .  S
C497        C498   1.371       .  A
C497        H509   1.082       .  S
C498        H510   1.082       .  S
C499        C500   1.371       .  A
C499        H511   1.082       .  S
C500        H512   1.082       .  S
C501        C562   1.450       .  S
C502        C558   1.451       .  S
C503        C549   1.450       .  S
C504        C554   1.452       .  S
N515        C520   1.355       .  A
N515       C1083   1.355       .  A
N515        H547   1.034       .  S
N516        C523   1.351       .  A
N516        C524   1.351       .  A
N517        C522   1.355       .  A
N517       C1085   1.355       .  A
N517        H548   1.034   1_565  S
N518        C525   1.351       .  A
N518        C526   1.351       .  A
C519        C527   1.388       .  A
C519        C535   1.418       .  A
C520        C536   1.418       .  A
C520        C528   1.388       .  A
C521        C529   1.388       .  A
C521        C538   1.418       .  A
C522        C537   1.418       .  A
C522        C530   1.388       .  A
C523        C535   1.414       .  A
C523        C531   1.387       .  A
C524        C538   1.414   1_545  A
C524        C532   1.387       .  A
C525        C533   1.387       .  A
C525        C536   1.414       .  A
C526        C534   1.387       .  A
C526        C537   1.414   1_545  A
C527        H539   1.082       .  S
C528       C1091   1.373       .  A
C528        H540   1.082       .  S
C529        H541   1.082       .  S
C530       C1093   1.373       .  A
C530        H542   1.082       .  S
C531        C532   1.371       .  A
C531        H543   1.082       .  S
C532        H544   1.082   1_545  S
C533        C534   1.371       .  A
C533        H545   1.082       .  S
C534        H546   1.082   1_545  S
C535        C556   1.451       .  S
C536        C551   1.450       .  S
C537        C560   1.451       .  S
C538        C564   1.450       .  S
C549        C550   1.205       .  T
C551        C552   1.205       .  T
C553        C554   1.206       .  T
C555        C556   1.206       .  T
C557        C558   1.206       .  T
C559        C560   1.206       .  T
C561        C562   1.205       .  T
C563        C564   1.205       .  T
O565        C568   1.266       .  A
O565       Cd570   2.466       .  S
C566        O575   1.263       .  A
C566        O571   1.264       .  A
O567        C573   1.265       .  A
O567       Cd570   2.482       .  S
C568        O576   1.265       .  A
C568        C579   1.465       .  S
C569        O574   1.265       .  A
C569        O572   1.263       .  A
C569        C751   1.434       .  S
Cd570       O577   2.459       .  S
Cd570       O576   2.463       .  S
Cd570       O575   2.457       .  S
Cd570       O571   2.476       .  S
Cd570       O574   2.470       .  S
Cd570       O572   2.454       .  S
C573        O577   1.263       .  A
C573        C599   1.465       .  S
O578        C581   1.264       .  A
O578       Cd583   2.475       .  S
C579        O588   1.265       .  A
C579        O584   1.266       .  A
O580        C586   1.265       .  A
O580       Cd583   2.481       .  S
C581        O589   1.263       .  A
C582        O587   1.265       .  A
C582        O585   1.263       .  A
C582        C749   1.433       .  S
Cd583       O590   2.458       .  S
Cd583       O589   2.457       .  S
Cd583       O588   2.463       .  S
Cd583       O584   2.465       .  S
Cd583       O587   2.470       .  S
Cd583       O585   2.454       .  S
C586        O590   1.263       .  A
O591        C594   1.265       .  A
O591       Cd596   2.466       .  S
C592        O601   1.263       .  A
C592        O597   1.264       .  A
C592        C942   1.464       .  S
O593        C599   1.264       .  A
O593       Cd596   2.479       .  S
C594        O602   1.265       .  A
C594        C607   1.465       .  S
C595        O600   1.264       .  A
C595        O598   1.264       .  A
C595        C747   1.435       .  S
Cd596       O603   2.463       .  S
Cd596       O602   2.464       .  S
Cd596       O601   2.459       .  S
Cd596       O597   2.477       .  S
Cd596       O600   2.468       .  S
Cd596       O598   2.459       .  S
C599        O603   1.263       .  A
O604        C607   1.265       .  A
O604       Cd609   2.466       .  S
C605        O614   1.263       .  A
C605        O610   1.264       .  A
O606        C612   1.264       .  A
O606       Cd609   2.468       .  S
C607        O615   1.265       .  A
C608        O613   1.264       .  A
C608        O611   1.263       .  A
C608        C774   1.465   1_556  S
Cd609       O616   2.459       .  S
Cd609       O615   2.464       .  S
Cd609       O614   2.459       .  S
Cd609       O610   2.476       .  S
Cd609       O613   2.479       .  S
Cd609       O611   2.462       .  S
C612        O616   1.263       .  A
C612        C745   1.434       .  S
O617        C620   1.264       .  A
O617       Cd622   2.476       .  S
C618        O627   1.265       .  A
C618        O623   1.265       .  A
C618        C633   1.465       .  S
O619        C625   1.264       .  A
O619       Cd622   2.480       .  S
C620        O628   1.263       .  A
C621        O626   1.264       .  A
C621        O624   1.263       .  A
C621        C743   1.434       .  S
Cd622       O629   2.462       .  S
Cd622       O628   2.459       .  S
Cd622       O627   2.464       .  S
Cd622       O623   2.466       .  S
Cd622       O626   2.469       .  S
Cd622       O624   2.459       .  S
C625        O629   1.263       .  A
C625        C651   1.465       .  S
O630        C633   1.265       .  A
O630       Cd635   2.466       .  S
C631        O640   1.263       .  A
C631        O636   1.264       .  A
O632        C638   1.264       .  A
O632       Cd635   2.480       .  S
C633        O641   1.265       .  A
C634        O639   1.264       .  A
C634        O637   1.263       .  A
C634        C741   1.435       .  S
Cd635       O642   2.463       .  S
Cd635       O641   2.465       .  S
Cd635       O640   2.459       .  S
Cd635       O636   2.477       .  S
Cd635       O639   2.469       .  S
Cd635       O637   2.460       .  S
C638        O642   1.263       .  A
O643        C646   1.264       .  A
O643       Cd648   2.476       .  S
C644        O653   1.265       .  A
C644        O649   1.266       .  A
C644        C659   1.465       .  S
O645        C651   1.265       .  A
O645       Cd648   2.482       .  S
C646        O654   1.263       .  A
C646        C996   1.464       .  S
C647        O652   1.265       .  A
C647        O650   1.263       .  A
C647        C740   1.434       .  S
Cd648       O655   2.459       .  S
Cd648       O654   2.458       .  S
Cd648       O653   2.464       .  S
Cd648       O649   2.465       .  S
Cd648       O652   2.470       .  S
Cd648       O650   2.455       .  S
C651        O655   1.263       .  A
O656        C659   1.266       .  A
O656       Cd661   2.466       .  S
C657        O666   1.263       .  A
C657        O662   1.264       .  A
O658        C664   1.265       .  A
O658       Cd661   2.482       .  S
C659        O667   1.265       .  A
C660        O665   1.265       .  A
C660        O663   1.263       .  A
C660        C738   1.434       .  S
Cd661       O668   2.459       .  S
Cd661       O667   2.463       .  S
Cd661       O666   2.457       .  S
Cd661       O662   2.476       .  S
Cd661       O665   2.471       .  S
Cd661       O663   2.455       .  S
C664        O668   1.263       .  A
C664        C826   1.465   1_556  S
N669        C674   1.355       .  A
N669        C673   1.355       .  A
N669        H701   1.034       .  S
N670        C677   1.351       .  A
N670        C678   1.351       .  A
N671        C676   1.355       .  A
N671        C675   1.355       .  A
N671        H702   1.034       .  S
N672        C679   1.351       .  A
N672        C680   1.351       .  A
C673        C681   1.388       .  A
C673        C689   1.418       .  A
C674        C690   1.418       .  A
C674        C682   1.388       .  A
C675        C683   1.388       .  A
C675        C692   1.418       .  A
C676        C691   1.418       .  A
C676        C684   1.388       .  A
C677        C689   1.414       .  A
C677        C685   1.387       .  A
C678        C692   1.414       .  A
C678        C686   1.387       .  A
C679        C687   1.387       .  A
C679        C690   1.414       .  A
C680        C688   1.387       .  A
C680        C691   1.414       .  A
C681        C682   1.373       .  A
C681        H693   1.082       .  S
C682        H694   1.082       .  S
C683        C684   1.373       .  A
C683        H695   1.082       .  S
C684        H696   1.082       .  S
C685        C686   1.371       .  A
C685        H697   1.082       .  S
C686        H698   1.082       .  S
C687        C688   1.371       .  A
C687        H699   1.082       .  S
C688        H700   1.082       .  S
C689        C750   1.450       .  S
C690        C746   1.451       .  S
C691        C737   1.450       .  S
C692        C742   1.452       .  S
N703        C708   1.355       .  A
N703        C895   1.355   1_556  A
N703        H735   1.034       .  S
N704        C711   1.351       .  A
N704        C712   1.351       .  A
N705        C710   1.355       .  A
N705        C897   1.355   1_556  A
N705        H736   1.034   1_565  S
N706        C713   1.351       .  A
N706        C714   1.351       .  A
C707        C715   1.388       .  A
C707        C723   1.418       .  A
C708        C724   1.418       .  A
C708        C716   1.388       .  A
C709        C717   1.388       .  A
C709        C726   1.418       .  A
C710        C725   1.418       .  A
C710        C718   1.388       .  A
C711        C723   1.414       .  A
C711        C719   1.387       .  A
C712        C726   1.414   1_545  A
C712        C720   1.387       .  A
C713        C721   1.387       .  A
C713        C724   1.414       .  A
C714        C722   1.387       .  A
C714        C725   1.414   1_545  A
C715        H727   1.082       .  S
C716        C903   1.373   1_556  A
C716        H728   1.082       .  S
C717        H729   1.082       .  S
C718        C905   1.373   1_556  A
C718        H730   1.082       .  S
C719        C720   1.371       .  A
C719        H731   1.082       .  S
C720        H732   1.082   1_545  S
C721        C722   1.371       .  A
C721        H733   1.082       .  S
C722        H734   1.082   1_545  S
C723        C744   1.451       .  S
C724        C739   1.450       .  S
C725        C748   1.451       .  S
C726        C752   1.450       .  S
C737        C738   1.205       .  T
C739        C740   1.205       .  T
C741        C742   1.206       .  T
C743        C744   1.206       .  T
C745        C746   1.206       .  T
C747        C748   1.206       .  T
C749        C750   1.205       .  T
C751        C752   1.205       .  T
O753        C756   1.266       .  A
O753       Cd758   2.466       .  S
C754        O763   1.263       .  A
C754        O759   1.264       .  A
O755        C761   1.265       .  A
O755       Cd758   2.482       .  S
C756        O764   1.265       .  A
C756        C767   1.465       .  S
C757        O762   1.265       .  A
C757        O760   1.263       .  A
C757        C939   1.434       .  S
Cd758       O765   2.459       .  S
Cd758       O764   2.463       .  S
Cd758       O763   2.457       .  S
Cd758       O759   2.476       .  S
Cd758       O762   2.470       .  S
Cd758       O760   2.454       .  S
C761        O765   1.263       .  A
C761        C787   1.465       .  S
O766        C769   1.264       .  A
O766       Cd771   2.475       .  S
C767        O776   1.265       .  A
C767        O772   1.266       .  A
O768        C774   1.265       .  A
O768       Cd771   2.481       .  S
C769        O777   1.263       .  A
C769        C981   1.464   1_554  S
C770        O775   1.265       .  A
C770        O773   1.263       .  A
C770        C937   1.433       .  S
Cd771       O778   2.458       .  S
Cd771       O777   2.457       .  S
Cd771       O776   2.463       .  S
Cd771       O772   2.465       .  S
Cd771       O775   2.470       .  S
Cd771       O773   2.454       .  S
C774        O778   1.263       .  A
O779        C782   1.265       .  A
O779       Cd784   2.466       .  S
C780        O789   1.263       .  A
C780        O785   1.264       .  A
O781        C787   1.264       .  A
O781       Cd784   2.479       .  S
C782        O790   1.265       .  A
C782        C795   1.465       .  S
C783        O788   1.264       .  A
C783        O786   1.264       .  A
C783        C935   1.435       .  S
Cd784       O791   2.463       .  S
Cd784       O790   2.464       .  S
Cd784       O789   2.459       .  S
Cd784       O785   2.477       .  S
Cd784       O788   2.468       .  S
Cd784       O786   2.459       .  S
C787        O791   1.263       .  A
O792        C795   1.265       .  A
O792       Cd797   2.466       .  S
C793        O802   1.263       .  A
C793        O798   1.264       .  A
C793        C957   1.464       .  S
O794        C800   1.264       .  A
O794       Cd797   2.468       .  S
C795        O803   1.265       .  A
C796        O801   1.264       .  A
C796        O799   1.263       .  A
Cd797       O804   2.459       .  S
Cd797       O803   2.464       .  S
Cd797       O802   2.459       .  S
Cd797       O798   2.476       .  S
Cd797       O801   2.479       .  S
Cd797       O799   2.462       .  S
C800        O804   1.263       .  A
C800        C933   1.434       .  S
O805        C808   1.264       .  A
O805       Cd810   2.476       .  S
C806        O815   1.265       .  A
C806        O811   1.265       .  A
C806        C821   1.465       .  S
O807        C813   1.264       .  A
O807       Cd810   2.480       .  S
C808        O816   1.263       .  A
C809        O814   1.264       .  A
C809        O812   1.263       .  A
C809        C931   1.434       .  S
Cd810       O817   2.462       .  S
Cd810       O816   2.459       .  S
Cd810       O815   2.464       .  S
Cd810       O811   2.466       .  S
Cd810       O814   2.469       .  S
Cd810       O812   2.459       .  S
C813        O817   1.263       .  A
C813        C839   1.465       .  S
O818        C821   1.265       .  A
O818       Cd823   2.466       .  S
C819        O828   1.263       .  A
C819        O824   1.264       .  A
C819       C1033   1.464   1_554  S
O820        C826   1.264       .  A
O820       Cd823   2.480       .  S
C821        O829   1.265       .  A
C822        O827   1.264       .  A
C822        O825   1.263       .  A
C822        C929   1.435       .  S
Cd823       O830   2.463       .  S
Cd823       O829   2.465       .  S
Cd823       O828   2.459       .  S
Cd823       O824   2.477       .  S
Cd823       O827   2.469       .  S
Cd823       O825   2.460       .  S
C826        O830   1.263       .  A
O831        C834   1.264       .  A
O831       Cd836   2.476       .  S
C832        O841   1.265       .  A
C832        O837   1.266       .  A
C832        C847   1.465       .  S
O833        C839   1.265       .  A
O833       Cd836   2.482       .  S
C834        O842   1.263       .  A
C835        O840   1.265       .  A
C835        O838   1.263       .  A
C835        C928   1.434       .  S
Cd836       O843   2.459       .  S
Cd836       O842   2.458       .  S
Cd836       O841   2.464       .  S
Cd836       O837   2.465       .  S
Cd836       O840   2.470       .  S
Cd836       O838   2.455       .  S
C839        O843   1.263       .  A
O844        C847   1.266       .  A
O844       Cd849   2.466       .  S
C845        O854   1.263       .  A
C845        O850   1.264       .  A
C845       C1007   1.464       .  S
O846        C852   1.265       .  A
O846       Cd849   2.482       .  S
C847        O855   1.265       .  A
C848        O853   1.265       .  A
C848        O851   1.263       .  A
C848        C926   1.434       .  S
Cd849       O856   2.459       .  S
Cd849       O855   2.463       .  S
Cd849       O854   2.457       .  S
Cd849       O850   2.476       .  S
Cd849       O853   2.471       .  S
Cd849       O851   2.455       .  S
C852        O856   1.263       .  A
N857        C862   1.355       .  A
N857        C861   1.355       .  A
N857        H889   1.034       .  S
N858        C865   1.351       .  A
N858        C866   1.351       .  A
N859        C864   1.355       .  A
N859        C863   1.355       .  A
N859        H890   1.034       .  S
N860        C867   1.351       .  A
N860        C868   1.351       .  A
C861        C869   1.388       .  A
C861        C877   1.418       .  A
C862        C878   1.418       .  A
C862        C870   1.388       .  A
C863        C871   1.388       .  A
C863        C880   1.418       .  A
C864        C879   1.418       .  A
C864        C872   1.388       .  A
C865        C877   1.414       .  A
C865        C873   1.387       .  A
C866        C880   1.414       .  A
C866        C874   1.387       .  A
C867        C875   1.387       .  A
C867        C878   1.414       .  A
C868        C876   1.387       .  A
C868        C879   1.414       .  A
C869        C870   1.373       .  A
C869        H881   1.082       .  S
C870        H882   1.082       .  S
C871        C872   1.373       .  A
C871        H883   1.082       .  S
C872        H884   1.082       .  S
C873        C874   1.371       .  A
C873        H885   1.082       .  S
C874        H886   1.082       .  S
C875        C876   1.371       .  A
C875        H887   1.082       .  S
C876        H888   1.082       .  S
C877        C938   1.450       .  S
C878        C934   1.451       .  S
C879        C925   1.450       .  S
C880        C930   1.452       .  S
N891        C896   1.355       .  A
N891        H923   1.034       .  S
N892        C899   1.351       .  A
N892        C900   1.351       .  A
N893        C898   1.355       .  A
N893        H924   1.034   1_665  S
N894        C901   1.351       .  A
N894        C902   1.351       .  A
C895        C903   1.388       .  A
C895        C911   1.418       .  A
C896        C912   1.418       .  A
C896        C904   1.388       .  A
C897        C905   1.388       .  A
C897        C914   1.418       .  A
C898        C913   1.418       .  A
C898        C906   1.388       .  A
C899        C911   1.414       .  A
C899        C907   1.387       .  A
C900        C914   1.414   1_545  A
C900        C908   1.387       .  A
C901        C909   1.387       .  A
C901        C912   1.414       .  A
C902        C910   1.387       .  A
C902        C913   1.414   1_545  A
C903        H915   1.082       .  S
C904        H916   1.082       .  S
C905        H917   1.082       .  S
C906        H918   1.082       .  S
C907        C908   1.371       .  A
C907        H919   1.082       .  S
C908        H920   1.082   1_545  S
C909        C910   1.371       .  A
C909        H921   1.082       .  S
C910        H922   1.082   1_545  S
C911        C932   1.451       .  S
C912        C927   1.450       .  S
C913        C936   1.451       .  S
C914        C940   1.450       .  S
C925        C926   1.205       .  T
C927        C928   1.205       .  T
C929        C930   1.206       .  T
C931        C932   1.206       .  T
C933        C934   1.206       .  T
C935        C936   1.206       .  T
C937        C938   1.205       .  T
C939        C940   1.205       .  T
O941        C944   1.266       .  A
O941       Cd946   2.466       .  S
C942        O951   1.263       .  A
C942        O947   1.264       .  A
O943        C949   1.265       .  A
O943       Cd946   2.482       .  S
C944        O952   1.265       .  A
C944        C955   1.465       .  S
C945        O950   1.265       .  A
C945        O948   1.263       .  A
C945       C1127   1.434       .  S
Cd946       O953   2.459       .  S
Cd946       O952   2.463       .  S
Cd946       O951   2.457       .  S
Cd946       O947   2.476       .  S
Cd946       O950   2.470       .  S
Cd946       O948   2.454       .  S
C949        O953   1.263       .  A
C949        C975   1.465       .  S
O954        C957   1.264       .  A
O954       Cd959   2.475       .  S
C955        O964   1.265       .  A
C955        O960   1.266       .  A
O956        C962   1.265       .  A
O956       Cd959   2.481       .  S
C957        O965   1.263       .  A
C958        O963   1.265       .  A
C958        O961   1.263       .  A
C958       C1125   1.433       .  S
Cd959       O966   2.458       .  S
Cd959       O965   2.457       .  S
Cd959       O964   2.463       .  S
Cd959       O960   2.465       .  S
Cd959       O963   2.470       .  S
Cd959       O961   2.454       .  S
C962        O966   1.263       .  A
O967        C970   1.265       .  A
O967       Cd972   2.466       .  S
C968        O977   1.263       .  A
C968        O973   1.264       .  A
O969        C975   1.264       .  A
O969       Cd972   2.479       .  S
C970        O978   1.265       .  A
C970        C983   1.465       .  S
C971        O976   1.264       .  A
C971        O974   1.264       .  A
C971       C1123   1.435       .  S
Cd972       O979   2.463       .  S
Cd972       O978   2.464       .  S
Cd972       O977   2.459       .  S
Cd972       O973   2.477       .  S
Cd972       O976   2.468       .  S
Cd972       O974   2.459       .  S
C975        O979   1.263       .  A
O980        C983   1.265       .  A
O980       Cd985   2.466       .  S
C981        O990   1.263       .  A
C981        O986   1.264       .  A
O982        C988   1.264       .  A
O982       Cd985   2.468       .  S
C983        O991   1.265       .  A
C984        O989   1.264       .  A
C984        O987   1.263       .  A
Cd985       O992   2.459       .  S
Cd985       O991   2.464       .  S
Cd985       O990   2.459       .  S
Cd985       O986   2.476       .  S
Cd985       O989   2.479       .  S
Cd985       O987   2.462       .  S
C988        O992   1.263       .  A
C988       C1121   1.434       .  S
O993        C996   1.264       .  A
O993       Cd998   2.476       .  S
C994       O1003   1.265       .  A
C994        O999   1.265       .  A
C994       C1009   1.465       .  S
O995       C1001   1.264       .  A
O995       Cd998   2.480       .  S
C996       O1004   1.263       .  A
C997       O1002   1.264       .  A
C997       O1000   1.263       .  A
C997       C1119   1.434       .  S
Cd998      O1005   2.462       .  S
Cd998      O1004   2.459       .  S
Cd998      O1003   2.464       .  S
Cd998       O999   2.466       .  S
Cd998      O1002   2.469       .  S
Cd998      O1000   2.459       .  S
C1001      O1005   1.263       .  A
C1001      C1027   1.465       .  S
O1006      C1009   1.265       .  A
O1006     Cd1011   2.466       .  S
C1007      O1016   1.263       .  A
C1007      O1012   1.264       .  A
O1008      C1014   1.264       .  A
O1008     Cd1011   2.480       .  S
C1009      O1017   1.265       .  A
C1010      O1015   1.264       .  A
C1010      O1013   1.263       .  A
C1010      C1117   1.435       .  S
Cd1011     O1018   2.463       .  S
Cd1011     O1017   2.465       .  S
Cd1011     O1016   2.459       .  S
Cd1011     O1012   2.477       .  S
Cd1011     O1015   2.469       .  S
Cd1011     O1013   2.460       .  S
C1014      O1018   1.263       .  A
O1019      C1022   1.264       .  A
O1019     Cd1024   2.476       .  S
C1020      O1029   1.265       .  A
C1020      O1025   1.266       .  A
C1020      C1035   1.465       .  S
O1021      C1027   1.265       .  A
O1021     Cd1024   2.482       .  S
C1022      O1030   1.263       .  A
C1023      O1028   1.265       .  A
C1023      O1026   1.263       .  A
C1023      C1116   1.434       .  S
Cd1024     O1031   2.459       .  S
Cd1024     O1030   2.458       .  S
Cd1024     O1029   2.464       .  S
Cd1024     O1025   2.465       .  S
Cd1024     O1028   2.470       .  S
Cd1024     O1026   2.455       .  S
C1027      O1031   1.263       .  A
O1032      C1035   1.266       .  A
O1032     Cd1037   2.466       .  S
C1033      O1042   1.263       .  A
C1033      O1038   1.264       .  A
O1034      C1040   1.265       .  A
O1034     Cd1037   2.482       .  S
C1035      O1043   1.265       .  A
C1036      O1041   1.265       .  A
C1036      O1039   1.263       .  A
C1036      C1114   1.434       .  S
Cd1037     O1044   2.459       .  S
Cd1037     O1043   2.463       .  S
Cd1037     O1042   2.457       .  S
Cd1037     O1038   2.476       .  S
Cd1037     O1041   2.471       .  S
Cd1037     O1039   2.455       .  S
C1040      O1044   1.263       .  A
N1045      C1050   1.355       .  A
N1045      C1049   1.355       .  A
N1045      H1077   1.034       .  S
N1046      C1053   1.351       .  A
N1046      C1054   1.351       .  A
N1047      C1052   1.355       .  A
N1047      C1051   1.355       .  A
N1047      H1078   1.034       .  S
N1048      C1055   1.351       .  A
N1048      C1056   1.351       .  A
C1049      C1057   1.388       .  A
C1049      C1065   1.418       .  A
C1050      C1066   1.418       .  A
C1050      C1058   1.388       .  A
C1051      C1059   1.388       .  A
C1051      C1068   1.418       .  A
C1052      C1067   1.418       .  A
C1052      C1060   1.388       .  A
C1053      C1065   1.414       .  A
C1053      C1061   1.387       .  A
C1054      C1068   1.414       .  A
C1054      C1062   1.387       .  A
C1055      C1063   1.387       .  A
C1055      C1066   1.414       .  A
C1056      C1064   1.387       .  A
C1056      C1067   1.414       .  A
C1057      C1058   1.373       .  A
C1057      H1069   1.082       .  S
C1058      H1070   1.082       .  S
C1059      C1060   1.373       .  A
C1059      H1071   1.082       .  S
C1060      H1072   1.082       .  S
C1061      C1062   1.371       .  A
C1061      H1073   1.082       .  S
C1062      H1074   1.082       .  S
C1063      C1064   1.371       .  A
C1063      H1075   1.082       .  S
C1064      H1076   1.082       .  S
C1065      C1126   1.450       .  S
C1066      C1122   1.451       .  S
C1067      C1113   1.450       .  S
C1068      C1118   1.452       .  S
N1079      C1084   1.355       .  A
N1079      H1111   1.034       .  S
N1080      C1087   1.351       .  A
N1080      C1088   1.351       .  A
N1081      C1086   1.355       .  A
N1081      H1112   1.034   1_665  S
N1082      C1089   1.351       .  A
N1082      C1090   1.351       .  A
C1083      C1091   1.388       .  A
C1083      C1099   1.418       .  A
C1084      C1100   1.418       .  A
C1084      C1092   1.388       .  A
C1085      C1093   1.388       .  A
C1085      C1102   1.418       .  A
C1086      C1101   1.418       .  A
C1086      C1094   1.388       .  A
C1087      C1099   1.414       .  A
C1087      C1095   1.387       .  A
C1088      C1102   1.414   1_545  A
C1088      C1096   1.387       .  A
C1089      C1097   1.387       .  A
C1089      C1100   1.414       .  A
C1090      C1098   1.387       .  A
C1090      C1101   1.414   1_545  A
C1091      H1103   1.082       .  S
C1092      H1104   1.082       .  S
C1093      H1105   1.082       .  S
C1094      H1106   1.082       .  S
C1095      C1096   1.371       .  A
C1095      H1107   1.082       .  S
C1096      H1108   1.082   1_545  S
C1097      C1098   1.371       .  A
C1097      H1109   1.082       .  S
C1098      H1110   1.082   1_545  S
C1099      C1120   1.451       .  S
C1100      C1115   1.450       .  S
C1101      C1124   1.451       .  S
C1102      C1128   1.450       .  S
C1113      C1114   1.205       .  T
C1115      C1116   1.205       .  T
C1117      C1118   1.206       .  T
C1119      C1120   1.206       .  T
C1121      C1122   1.206       .  T
C1123      C1124   1.206       .  T
C1125      C1126   1.205       .  T
C1127      C1128   1.205       .  T
