geometry optimzed in LAMMPS
_audit_creation_date              2020-11-30 
_audit_creation_method            'lammps2cif' 
_symmetry_space_group_name_H-M    'P1' 
_symmetry_Int_Tables_number       1 
_symmetry_cell_setting            triclinic 
loop_ 
_symmetry_equiv_pos_as_xyz 
  x,y,z 
_cell_length_a                    38.01613648 
_cell_length_b                    34.09130745643682 
_cell_length_c                    39.847188880261015 
_cell_angle_alpha                 89.98895382317986 
_cell_angle_beta                  124.65780373726547 
_cell_angle_gamma                 89.97794180227022 
loop_ 
_atom_site_label 
_atom_site_type_symbol 
_atom_site_fract_x 
_atom_site_fract_y 
_atom_site_fract_z 
_atom_site_charge 
C1          C  0.01450104  0.33977786  0.33987442     0.80800
N2          N  0.01328884  0.33319260  0.30561204    -0.77500
C3          C  0.03051798  0.30001424  0.30175125     0.83300
N4          N  0.04827028  0.27274195  0.33221623    -0.77400
C5          C  0.04979984  0.27938615  0.36671045     0.83400
N6          N  0.03334720  0.31313159  0.37053585    -0.79100
O7          O  0.00230211  0.38695912  0.37702887    -0.57200
C8          C  0.99341667  0.00070209  0.41686423     0.75400
O9          O  0.95467979  0.99470165  0.29738752    -0.58400
C10         C  0.99549798  0.37563667  0.34347062     0.75400
C11         C  0.87090587  0.43682423  0.31469833     0.77800
Cd12       Cd  0.96058857  0.44878795  0.34804142     1.37500
O13         O  0.99400486  0.46389481  0.42208050    -0.57200
O14         O  0.90022960  0.42909119  0.35144876    -0.56000
C15         C  0.99483023  0.99652591  0.31427481     0.77700
O16         O  0.88296208  0.44956095  0.29291377    -0.58400
O17         O  0.97645177  0.01246433  0.38073853    -0.56800
O18         O  0.97154177  0.39700181  0.31269334    -0.56800
O19         O  0.01810394  0.47559798  0.34575758    -0.56000
C20         C  0.04639620  0.25454652  0.22669206     0.80800
N21         N  0.02774490  0.28141834  0.19622973    -0.77500
C22         C  0.01127124  0.31509396  0.20017942     0.83300
N23         N  0.01260458  0.32146083  0.23459655    -0.77400
C24         C  0.03013495  0.29398834  0.26485984     0.83400
N25         N  0.04739560  0.26086684  0.26090103    -0.79100
O26         O  0.06859090  0.13030056  0.14473153    -0.57200
C27         C  0.06569161  0.21885817  0.22304589     0.75400
O28         O  0.10818696  0.10029606  0.26990304    -0.58400
C29         C  0.06983665  0.09350613  0.15030059     0.75400
C30         C  0.19106747  0.15810863  0.25184639     0.77800
Cd31       Cd  0.10149177  0.14594913  0.21859720     1.37500
O32         O  0.05904261  0.20766782  0.18950444    -0.57200
O33         O  0.16174646  0.16595612  0.21513515    -0.56000
C34         C  0.06806265  0.09808503  0.25301933     0.77700
O35         O  0.17897246  0.14549116  0.27364195    -0.58400
O36         O  0.08985445  0.19754394  0.25380102    -0.56800
O37         O  0.08677062  0.08200615  0.18650417    -0.56800
O38         O  0.04452753  0.11844209  0.22113586    -0.56000
C39         C  0.01536525  0.00460047  0.09008894     0.80800
N40         N  0.01453532  0.01089441  0.05596584    -0.77500
C41         C  0.03218633  0.04382994  0.05222245     0.83300
N42         N  0.04988749  0.07116166  0.08259622    -0.77400
C43         C  0.05103466  0.06481034  0.11692532     0.83400
N44         N  0.03422917  0.03129277  0.12068495    -0.79100
O45         O  0.00272498  0.45774767  0.12722699    -0.57200
C46         C  0.99241081  0.34382399  0.16679675     0.75400
O47         O  0.88315532  0.39431369  0.04292179    -0.58400
C48         C  0.99593494  0.46901432  0.09364588     0.75400
C49         C  0.99549185  0.34829938  0.06512277     0.77800
Cd50       Cd  0.96067458  0.39605167  0.09831763     1.37500
O51         O  0.99318275  0.38060885  0.17224153    -0.57200
O52         O  0.01867268  0.36892241  0.09684770    -0.56000
C53         C  0.87078215  0.40772464  0.06422151     0.77700
O54         O  0.95529461  0.35041408  0.04786455    -0.58400
O55         O  0.97580681  0.33231905  0.13066583    -0.56800
O56         O  0.97166030  0.44781096  0.06284545    -0.56800
O57         O  0.89989898  0.41637151  0.10077046    -0.56000
C58         C  0.04823936  0.08944283  0.97736514     0.80800
N59         N  0.04936503  0.08289312  0.01159923    -0.77500
C60         C  0.03201185  0.04979228  0.01542854     0.83300
N61         N  0.01422214  0.02255170  0.48497002    -0.77400
C62         C  0.01277182  0.02912949  0.45051169     0.83400
N63         N  0.02934547  0.06280578  0.44669995    -0.79100
O64         O  0.06021381  0.13689482  0.44016810    -0.57200
C65         C  0.06897737  0.25092445  0.40034627     0.75400
O66         O  0.10881456  0.24452159  0.02064697    -0.58400
C67         C  0.06718725  0.12537874  0.97374354     0.75400
C68         C  0.19165597  0.18749246  0.00261149     0.77800
Cd69       Cd  0.10197217  0.19888598  0.46924931     1.37500
O70         O  0.06882054  0.21415524  0.39520877    -0.57200
O71         O  0.16246274  0.17935303  0.46594609    -0.56000
C72         C  0.06873147  0.24649568  0.00403851     0.77700
O73         O  0.17942820  0.20041726  0.02418388    -0.58400
O74         O  0.08536083  0.26260806  0.43638643    -0.56800
O75         O  0.09120605  0.14668182  0.00452284    -0.56800
O76         O  0.04519508  0.22581883  0.47243497    -0.56000
C77         C  0.51509065  0.09016926  0.09100290     0.80800
N78         N  0.51408620  0.08355737  0.05683609    -0.77500
C79         C  0.53121285  0.05026895  0.05300000     0.83300
N80         N  0.54863843  0.02293176  0.08337934    -0.77400
C81         C  0.54996568  0.02958040  0.11776262     0.83400
N82         N  0.53362497  0.06341543  0.12158312    -0.79100
O83         O  0.50245158  0.13733531  0.12794375    -0.57200
C84         C  0.49267839  0.25136447  0.16737542     0.75400
O85         O  0.45354661  0.24431379  0.04700499    -0.58400
C86         C  0.49608046  0.12611975  0.09453298     0.75400
C87         C  0.37095842  0.18743381  0.06512026     0.77800
Cd88       Cd  0.46059624  0.19929508  0.09878690     1.37500
O89         O  0.49415267  0.21453312  0.17278808    -0.57200
O90         O  0.40010096  0.17940556  0.10184849    -0.56000
C91         C  0.49365398  0.24736542  0.06426992     0.77700
O92         O  0.38324196  0.20034247  0.04359179    -0.58400
O93         O  0.47523613  0.26308394  0.13116465    -0.56800
O94         O  0.47246530  0.14764441  0.06381287    -0.56800
O95         O  0.51743538  0.22761960  0.09658622    -0.56000
C96         C  0.54756986  0.00460862  0.97827767     0.80800
N97         N  0.54853348  0.01105408  0.01246226    -0.77500
C98         C  0.53103135  0.04413606  0.01620862     0.83300
N99         N  0.51331789  0.07142081  0.98576636    -0.77400
C100        C  0.51201734  0.06492588  0.45138391     0.83400
N101        N  0.52869885  0.03129508  0.44763547    -0.79100
O102        O  0.56834161  0.38039668  0.39570223    -0.57200
C103        C  0.56682217  0.46885777  0.97464761     0.75400
O104        O  0.60899639  0.35028408  0.02124453    -0.58400
C105        C  0.56938700  0.34357783  0.40108420     0.75400
C106        C  0.69159616  0.40728407  0.00254144     0.77800
Cd107      Cd  0.60204418  0.39570068  0.46977084     1.37500
O108        O  0.55996795  0.45758704  0.44105054    -0.57200
O109        O  0.66219855  0.41459921  0.46570493    -0.56000
C110        C  0.56889045  0.34763385  0.00422322     0.77700
O111        O  0.67964178  0.39515061  0.02459635    -0.58400
O112        O  0.59103765  0.44753170  0.00537921    -0.56800
O113        O  0.58654780  0.33190665  0.43727093    -0.56800
O114        O  0.54516915  0.36774332  0.47217337    -0.56000
C115        C  0.54724754  0.34011503  0.22786730     0.80800
N116        N  0.52834004  0.31352433  0.19717088    -0.77500
C117        C  0.51171628  0.27986499  0.20091966     0.83300
N118        N  0.51312635  0.27323816  0.23534899    -0.77400
C119        C  0.53087141  0.30045293  0.26582791     0.83400
N120        N  0.54829702  0.33355401  0.26207000    -0.79100
O121        O  0.56810349  0.46427226  0.14604264    -0.57200
C122        C  0.56657433  0.37584983  0.22439810     0.75400
O123        O  0.67964315  0.44966273  0.27497202    -0.58400
C124        C  0.56902851  0.00108234  0.15134641     0.75400
C125        C  0.56905286  0.99678848  0.25502272     0.77800
Cd126      Cd  0.60203365  0.44899545  0.22012039     1.37500
O127        O  0.55994743  0.38721081  0.19091734    -0.57200
O128        O  0.54533473  0.47659061  0.22307201    -0.56000
C129        C  0.69173150  0.43726997  0.25311042     0.77700
O130        O  0.60913846  0.99429076  0.27185497    -0.58400
O131        O  0.59066379  0.39707426  0.25522045    -0.56800
O132        O  0.58617355  0.01278770  0.18750904    -0.56800
O133        O  0.66239035  0.42979038  0.21630688    -0.56000
C134        C  0.51520390  0.25453745  0.34088806     0.80800
N135        N  0.51404108  0.26108541  0.30661762    -0.77500
C136        C  0.53122210  0.29429075  0.30270697     0.83300
N137        N  0.54883126  0.32160586  0.33308983    -0.77400
C138        C  0.55031522  0.31502235  0.36756049     0.83400
N139        N  0.53393726  0.28126808  0.37146215    -0.79100
O140        O  0.50273791  0.20750112  0.37808110    -0.57200
C141        C  0.49293722  0.09349566  0.41783971     0.75400
O142        O  0.38295813  0.14553363  0.29406758    -0.58400
C143        C  0.49610559  0.21871348  0.34455175     0.75400
C144        C  0.49345868  0.09736927  0.31458977     0.77800
Cd145      Cd  0.46053743  0.14568809  0.34914288     1.37500
O146        O  0.49395979  0.13030950  0.42319912    -0.57200
O147        O  0.51720291  0.11765574  0.34647227    -0.56000
C148        C  0.37095824  0.15769721  0.31607927     0.77700
O149        O  0.45336928  0.09996536  0.29770806    -0.58400
O150        O  0.47586699  0.08185581  0.38166970    -0.56800
O151        O  0.47214105  0.19730810  0.31385125    -0.56800
O152        O  0.40032892  0.16508229  0.35288453    -0.56000
C153        C  0.50557381  0.02287047  0.25114772    -0.20700
C154        C  0.55020638  0.02226384  0.27092231    -0.08700
C155        C  0.57578455  0.04673099  0.30485961     0.30100
C156        C  0.55691519  0.07112577  0.31856137    -0.20700
C157        C  0.51228572  0.07175079  0.29877779    -0.08800
C158        C  0.48669653  0.04731117  0.26481482     0.30100
F159        F  0.44351555  0.04679073  0.24482933    -0.19300
H160        H  0.48505346  0.50439451  0.22487050     0.16900
H161        H  0.57743805  0.08962921  0.34481389     0.18500
F162        F  0.61894411  0.04742089  0.32470768    -0.19300
C163        C  0.55714198  0.27549687  0.06964318    -0.20700
C164        C  0.51241198  0.27290015  0.04836016    -0.08700
C165        C  0.48658036  0.29526651  0.01271454     0.30100
C166        C  0.50532871  0.31957109  0.99882888    -0.20700
C167        C  0.55006865  0.32213839  0.02010444    -0.08800
C168        C  0.57588427  0.29980219  0.05576607     0.30100
F169        F  0.61918494  0.30131474  0.07730783    -0.19300
H170        H  0.57784429  0.25869340  0.09726829     0.18500
H171        H  0.48463662  0.33638555  0.97121037     0.18500
F172        F  0.44327680  0.29381785  0.99123373    -0.19300
C173        C  0.31248105  0.18191887  0.07580827    -0.20700
C174        C  0.32510523  0.18322927  0.04882145    -0.08700
C175        C  0.29344539  0.18244489  0.00656101     0.30100
C176        C  0.25011028  0.18229907  0.49181799    -0.20700
C177        C  0.23749657  0.18331134  0.01882408    -0.08800
C178        C  0.26915546  0.18213873  0.06106847     0.30100
F179        F  0.25833775  0.18149457  0.08818485    -0.19300
H180        H  0.33620489  0.18203133  0.10848143     0.18500
H181        H  0.22637641  0.18270466  0.45914907     0.18500
F182        F  0.30426786  0.18214554  0.47944192    -0.19300
C183        C  0.81245918  0.41379438  0.07509017    -0.20700
C184        C  0.82488928  0.41178539  0.04797196    -0.08700
C185        C  0.79303323  0.41177171  0.00574213     0.30100
C186        C  0.74974499  0.41180052  0.49122370    -0.20700
C187        C  0.73736300  0.41150629  0.01842629    -0.08800
C188        C  0.76919702  0.41348931  0.06058766     0.30100
F189        F  0.75862338  0.41485748  0.08786944    -0.19300
H190        H  0.83631042  0.41431910  0.10773262     0.18500
H191        H  0.72587596  0.41077811  0.45859918     0.18500
F192        F  0.80361122  0.41144905  0.47844320    -0.19300
C193        C  0.07659320  0.29580588  0.05423425    -0.20700
C194        C  0.05001939  0.27207933  0.02001107    -0.08700
C195        C  0.00540865  0.27386098  0.00067490     0.30100
C196        C  0.98803812  0.29886824  0.01539666    -0.20700
C197        C  0.01455480  0.32262774  0.04956612    -0.08800
C198        C  0.05919231  0.32087568  0.06894814     0.30100
F199        F  0.08619699  0.34334162  0.10207640    -0.19300
H200        H  0.11096154  0.29514007  0.06958536     0.18500
H201        H  0.95366027  0.29952796  0.49998050     0.18500
F202        F  0.97832244  0.25159321  0.46740894    -0.19300
C203        C  0.29415891  0.16390753  0.25765645    -0.20700
C204        C  0.32511679  0.16194923  0.29993401    -0.08700
C205        C  0.31158653  0.16203934  0.32631064     0.30100
C206        C  0.26796589  0.16172070  0.31046144    -0.20700
C207        C  0.23696967  0.16227572  0.26814124    -0.08800
C208        C  0.25053015  0.16460453  0.24182930     0.30100
F209        F  0.22174448  0.16595290  0.20073840    -0.19300
H210        H  0.30373507  0.16437884  0.23672711     0.18500
H211        H  0.25842610  0.16040034  0.33139703     0.18500
F212        F  0.34038052  0.16067790  0.36739736    -0.19300
C213        C  0.81273029  0.43227275  0.32590390    -0.20700
C214        C  0.82511258  0.43256013  0.29871297    -0.08700
C215        C  0.79326488  0.43078108  0.25653974     0.30100
C216        C  0.74997304  0.43081009  0.24202791    -0.20700
C217        C  0.73757340  0.43292042  0.26917847    -0.08800
C218        C  0.76946420  0.43264442  0.31140353     0.30100
F219        F  0.75895657  0.43317691  0.33875086    -0.19300
H220        H  0.83660316  0.43315155  0.35853321     0.18500
H221        H  0.72610474  0.43044932  0.20938716     0.18500
F222        F  0.80387346  0.42930762  0.22928544    -0.19300
C223        C  0.98739702  0.04678494  0.26514727    -0.20700
C224        C  0.01381226  0.02221373  0.29864951    -0.08700
C225        C  0.05837258  0.02321727  0.31743434     0.30100
C226        C  0.07578786  0.04819688  0.30268433    -0.20700
C227        C  0.04932134  0.07263891  0.26905413    -0.08800
C228        C  0.00480344  0.07178439  0.25044365     0.30100
F229        F  0.97787282  0.09507635  0.21802265    -0.19300
H230        H  0.95309875  0.54681144  0.25029750     0.18500
H231        H  0.11008440  0.04820969  0.31752511     0.18500
F232        F  0.08529974  0.00009437  0.35002338    -0.19300
C233        C  0.01450089  0.33977774  0.83987436     0.80800
N234        N  0.01328886  0.33319256  0.80561205    -0.77500
C235        C  0.03051797  0.30001421  0.80175122     0.83300
N236        N  0.04827022  0.27274186  0.83221614    -0.77400
C237        C  0.04979976  0.27938607  0.86671036     0.83400
N238        N  0.03334720  0.31313154  0.87053584    -0.79100
O239        O  0.00230213  0.38695904  0.87702887    -0.57200
C240        C  0.99341665  0.00070201  0.91686421     0.75400
O241        O  0.95467976  0.99470160  0.79738741    -0.58400
C242        C  0.99549798  0.37563659  0.84347061     0.75400
C243        C  0.87090599  0.43682417  0.81469848     0.77800
Cd244      Cd  0.96058862  0.44878788  0.84804142     1.37500
O245        O  0.99400484  0.46389496  0.92208042    -0.57200
O246        O  0.90022975  0.42909105  0.85144896    -0.56000
C247        C  0.99483022  0.99652595  0.81427482     0.77700
O248        O  0.88296211  0.44956090  0.79291381    -0.58400
O249        O  0.97645170  0.01246424  0.88073849    -0.56800
O250        O  0.97154178  0.39700170  0.81269330    -0.56800
O251        O  0.01810394  0.47559798  0.84575758    -0.56000
C252        C  0.04639640  0.25454651  0.72669211     0.80800
N253        N  0.02774496  0.28141826  0.69622976    -0.77500
C254        C  0.01127143  0.31509396  0.70017947     0.83300
N255        N  0.01260454  0.32146080  0.73459651    -0.77400
C256        C  0.03013503  0.29398831  0.76485984     0.83400
N257        N  0.04739565  0.26086679  0.76090102    -0.79100
O258        O  0.06859087  0.13030062  0.64473144    -0.57200
C259        C  0.06569168  0.21885821  0.72304585     0.75400
O260        O  0.10818694  0.10029606  0.76990303    -0.58400
C261        C  0.06983649  0.09350622  0.65030057     0.75400
C262        C  0.19106750  0.15810868  0.75184648     0.77800
Cd263      Cd  0.10149173  0.14594910  0.71859717     1.37500
O264        O  0.05904264  0.20766778  0.68950441    -0.57200
O265        O  0.16174650  0.16595597  0.71513527    -0.56000
C266        C  0.06806266  0.09808487  0.75301927     0.77700
O267        O  0.17897242  0.14549111  0.77364193    -0.58400
O268        O  0.08985428  0.19754393  0.75380092    -0.56800
O269        O  0.08677063  0.08200619  0.68650414    -0.56800
O270        O  0.04452750  0.11844203  0.72113592    -0.56000
C271        C  0.01536530  0.00460057  0.59008897     0.80800
N272        N  0.01453526  0.01089442  0.55596577    -0.77500
C273        C  0.03218636  0.04382997  0.55222249     0.83300
N274        N  0.04988756  0.07116171  0.58259633    -0.77400
C275        C  0.05103486  0.06481044  0.61692549     0.83400
N276        N  0.03422927  0.03129294  0.62068503    -0.79100
O277        O  0.00272494  0.45774764  0.62722697    -0.57200
C278        C  0.99241090  0.34382397  0.66679672     0.75400
O279        O  0.88315530  0.39431375  0.54292172    -0.58400
C280        C  0.99593491  0.46901437  0.59364588     0.75400
C281        C  0.99549194  0.34829961  0.56512277     0.77800
Cd282      Cd  0.96067454  0.39605163  0.59831759     1.37500
O283        O  0.99318256  0.38060881  0.67224141    -0.57200
O284        O  0.01867286  0.36892248  0.59684785    -0.56000
C285        C  0.87078213  0.40772467  0.56422149     0.77700
O286        O  0.95529466  0.35041413  0.54786453    -0.58400
O287        O  0.97580690  0.33231900  0.63066578    -0.56800
O288        O  0.97166032  0.44781101  0.56284547    -0.56800
O289        O  0.89989897  0.41637137  0.60077052    -0.56000
C290        C  0.04823936  0.08944288  0.47736519     0.80800
N291        N  0.04936498  0.08289316  0.51159926    -0.77500
C292        C  0.03201173  0.04979235  0.51542850     0.83300
N293        N  0.01422220  0.02255160  0.98497007    -0.77400
C294        C  0.01277188  0.02912940  0.95051172     0.83400
N295        N  0.02934537  0.06280575  0.94669988    -0.79100
O296        O  0.06021367  0.13689486  0.94016809    -0.57200
C297        C  0.06897740  0.25092441  0.90034621     0.75400
O298        O  0.10881461  0.24452146  0.52064707    -0.58400
C299        C  0.06718718  0.12537888  0.47374355     0.75400
C300        C  0.19165593  0.18749232  0.50261147     0.77800
Cd301      Cd  0.10197213  0.19888600  0.96924928     1.37500
O302        O  0.06882066  0.21415519  0.89520878    -0.57200
O303        O  0.16246282  0.17935319  0.96594610    -0.56000
C304        C  0.06873153  0.24649559  0.50403860     0.77700
O305        O  0.17942820  0.20041750  0.52418379    -0.58400
O306        O  0.08536066  0.26260805  0.93638632    -0.56800
O307        O  0.09120609  0.14668189  0.50452292    -0.56800
O308        O  0.04519503  0.22581873  0.97243504    -0.56000
C309        C  0.51509061  0.09016928  0.59100287     0.80800
N310        N  0.51408613  0.08355743  0.55683601    -0.77500
C311        C  0.53121280  0.05026897  0.55299995     0.83300
N312        N  0.54863860  0.02293182  0.58337941    -0.77400
C313        C  0.54996563  0.02958035  0.61776261     0.83400
N314        N  0.53362503  0.06341544  0.62158316    -0.79100
O315        O  0.50245148  0.13733528  0.62794372    -0.57200
C316        C  0.49267847  0.25136451  0.66737543     0.75400
O317        O  0.45354659  0.24431365  0.54700493    -0.58400
C318        C  0.49608034  0.12611975  0.59453294     0.75400
C319        C  0.37095836  0.18743371  0.56512018     0.77800
Cd320      Cd  0.46059620  0.19929503  0.59878688     1.37500
O321        O  0.49415262  0.21453310  0.67278807    -0.57200
O322        O  0.40010091  0.17940552  0.60184843    -0.56000
C323        C  0.49365397  0.24736532  0.56426986     0.77700
O324        O  0.38324187  0.20034235  0.54359173    -0.58400
O325        O  0.47523611  0.26308406  0.63116464    -0.56800
O326        O  0.47246516  0.14764441  0.56381281    -0.56800
O327        O  0.51743551  0.22761958  0.59658623    -0.56000
C328        C  0.54756983  0.00460876  0.47827762     0.80800
N329        N  0.54853345  0.01105417  0.51246221    -0.77500
C330        C  0.53103155  0.04413624  0.51620871     0.83300
N331        N  0.51331783  0.07142082  0.48576633    -0.77400
C332        C  0.51201748  0.06492591  0.95138396     0.83400
N333        N  0.52869900  0.03129507  0.94763558    -0.79100
O334        O  0.56834150  0.38039673  0.89570209    -0.57200
C335        C  0.56682205  0.46885767  0.47464752     0.75400
O336        O  0.60899645  0.35028398  0.52124448    -0.58400
C337        C  0.56938692  0.34357786  0.90108419     0.75400
C338        C  0.69159617  0.40728407  0.50254142     0.77800
Cd339      Cd  0.60204413  0.39570067  0.96977085     1.37500
O340        O  0.55996794  0.45758705  0.94105055    -0.57200
O341        O  0.66219854  0.41459903  0.96570491    -0.56000
C342        C  0.56889053  0.34763384  0.50422321     0.77700
O343        O  0.67964185  0.39515066  0.52459635    -0.58400
O344        O  0.59103767  0.44753163  0.50537911    -0.56800
O345        O  0.58654774  0.33190660  0.93727096    -0.56800
O346        O  0.54516902  0.36774325  0.97217329    -0.56000
C347        C  0.54724757  0.34011502  0.72786740     0.80800
N348        N  0.52834023  0.31352437  0.69717096    -0.77500
C349        C  0.51171636  0.27986505  0.70091971     0.83300
N350        N  0.51312640  0.27323816  0.73534904    -0.77400
C351        C  0.53087142  0.30045282  0.76582802     0.83400
N352        N  0.54829689  0.33355392  0.76207005    -0.79100
O353        O  0.56810361  0.46427219  0.64604263    -0.57200
C354        C  0.56657431  0.37584990  0.72439813     0.75400
O355        O  0.67964311  0.44966283  0.77497199    -0.58400
C356        C  0.56902852  0.00108232  0.65134642     0.75400
C357        C  0.56905286  0.99678838  0.75502275     0.77800
Cd358      Cd  0.60203365  0.44899546  0.72012040     1.37500
O359        O  0.55994752  0.38721080  0.69091731    -0.57200
O360        O  0.54533480  0.47659085  0.72307197    -0.56000
C361        C  0.69173154  0.43727026  0.75311038     0.77700
O362        O  0.60913836  0.99429055  0.77185495    -0.58400
O363        O  0.59066376  0.39707431  0.75522057    -0.56800
O364        O  0.58617358  0.01278765  0.68750909    -0.56800
O365        O  0.66239043  0.42979041  0.71630689    -0.56000
C366        C  0.51520386  0.25453747  0.84088801     0.80800
N367        N  0.51404113  0.26108539  0.80661762    -0.77500
C368        C  0.53122205  0.29429077  0.80270697     0.83300
N369        N  0.54883121  0.32160593  0.83308982    -0.77400
C370        C  0.55031516  0.31502241  0.86756047     0.83400
N371        N  0.53393731  0.28126806  0.87146215    -0.79100
O372        O  0.50273801  0.20750106  0.87808111    -0.57200
C373        C  0.49293716  0.09349576  0.91783975     0.75400
O374        O  0.38295827  0.14553366  0.79406775    -0.58400
C375        C  0.49610573  0.21871339  0.84455175     0.75400
C376        C  0.49345866  0.09736932  0.81458979     0.77800
Cd377      Cd  0.46053745  0.14568812  0.84914291     1.37500
O378        O  0.49395991  0.13030966  0.92319933    -0.57200
O379        O  0.51720285  0.11765586  0.84647220    -0.56000
C380        C  0.37095826  0.15769711  0.81607936     0.77700
O381        O  0.45336925  0.09996534  0.79770813    -0.58400
O382        O  0.47586708  0.08185584  0.88166970    -0.56800
O383        O  0.47214094  0.19730819  0.81385116    -0.56800
O384        O  0.40032894  0.16508222  0.85288456    -0.56000
C385        C  0.50557407  0.02287050  0.75114791    -0.20700
C386        C  0.55020658  0.02226388  0.77092247    -0.08700
C387        C  0.57578462  0.04673111  0.80485962     0.30100
C388        C  0.55691525  0.07112588  0.81856140    -0.20700
C389        C  0.51228582  0.07175092  0.79877788    -0.08800
C390        C  0.48669674  0.04731132  0.76481495     0.30100
F391        F  0.44351565  0.04679091  0.74482929    -0.19300
H392        H  0.48505344  0.50439434  0.72487053     0.16900
H393        H  0.57743808  0.08962966  0.84481369     0.18500
F394        F  0.61894411  0.04742105  0.82470755    -0.19300
C395        C  0.55714189  0.27549688  0.56964306    -0.20700
C396        C  0.51241185  0.27290021  0.54836005    -0.08700
C397        C  0.48658029  0.29526658  0.51271443     0.30100
C398        C  0.50532870  0.31957118  0.49882875    -0.20700
C399        C  0.55006865  0.32213843  0.52010434    -0.08800
C400        C  0.57588421  0.29980226  0.55576597     0.30100
F401        F  0.61918493  0.30131470  0.57730780    -0.19300
H402        H  0.57784411  0.25869399  0.59726828     0.18500
H403        H  0.48463672  0.33638609  0.47121036     0.18500
F404        F  0.44327680  0.29381795  0.49123381    -0.19300
C405        C  0.31248105  0.18191882  0.57580809    -0.20700
C406        C  0.32510519  0.18322923  0.54882130    -0.08700
C407        C  0.29344533  0.18244473  0.50656081     0.30100
C408        C  0.25011025  0.18229916  0.99181818    -0.20700
C409        C  0.23749653  0.18331132  0.51882385    -0.08800
C410        C  0.26915549  0.18213866  0.56106835     0.30100
F411        F  0.25833776  0.18149449  0.58818480    -0.19300
H412        H  0.33620494  0.18203092  0.60848128     0.18500
H413        H  0.22637661  0.18270521  0.95914971     0.18500
F414        F  0.30426792  0.18214573  0.97944202    -0.19300
C415        C  0.81245907  0.41379431  0.57509022    -0.20700
C416        C  0.82488919  0.41178534  0.54797199    -0.08700
C417        C  0.79303314  0.41177175  0.50574212     0.30100
C418        C  0.74974511  0.41180043  0.99122369    -0.20700
C419        C  0.73736292  0.41150629  0.51842631    -0.08800
C420        C  0.76919693  0.41348933  0.56058764     0.30100
F421        F  0.75862339  0.41485739  0.58786942    -0.19300
H422        H  0.83631015  0.41431856  0.60773263     0.18500
H423        H  0.72587608  0.41077782  0.95859916     0.18500
F424        F  0.80361122  0.41144899  0.97844324    -0.19300
C425        C  0.07659325  0.29580591  0.55423423    -0.20700
C426        C  0.05001940  0.27207933  0.52001109    -0.08700
C427        C  0.00540867  0.27386118  0.50067489     0.30100
C428        C  0.98803812  0.29886837  0.51539678    -0.20700
C429        C  0.01455487  0.32262797  0.54956615    -0.08800
C430        C  0.05919237  0.32087559  0.56894831     0.30100
F431        F  0.08619713  0.34334149  0.60207660    -0.19300
H432        H  0.11096143  0.29514004  0.56958518     0.18500
H433        H  0.95366019  0.29952746  0.99998058     0.18500
F434        F  0.97832246  0.25159312  0.96740885    -0.19300
C435        C  0.29415891  0.16390758  0.75765661    -0.20700
C436        C  0.32511678  0.16194915  0.79993412    -0.08700
C437        C  0.31158655  0.16203927  0.82631072     0.30100
C438        C  0.26796595  0.16172073  0.81046143    -0.20700
C439        C  0.23696968  0.16227568  0.76814129    -0.08800
C440        C  0.25053015  0.16460461  0.74182937     0.30100
F441        F  0.22174462  0.16595311  0.70073846    -0.19300
H442        H  0.30373509  0.16437839  0.73672730     0.18500
H443        H  0.25842620  0.16039979  0.83139723     0.18500
F444        F  0.34038057  0.16067779  0.86739741    -0.19300
C445        C  0.81273033  0.43227265  0.82590397    -0.20700
C446        C  0.82511266  0.43256004  0.79871304    -0.08700
C447        C  0.79326497  0.43078108  0.75653975     0.30100
C448        C  0.74997315  0.43081008  0.74202790    -0.20700
C449        C  0.73757348  0.43292028  0.76917850    -0.08800
C450        C  0.76946426  0.43264441  0.81140358     0.30100
F451        F  0.75895655  0.43317683  0.83875083    -0.19300
H452        H  0.83660317  0.43315135  0.85853332     0.18500
H453        H  0.72610495  0.43044936  0.70938714     0.18500
F454        F  0.80387359  0.42930777  0.72928548    -0.19300
C455        C  0.98739713  0.04678493  0.76514723    -0.20700
C456        C  0.01381226  0.02221369  0.79864944    -0.08700
C457        C  0.05837263  0.02321718  0.81743431     0.30100
C458        C  0.07578792  0.04819678  0.80268433    -0.20700
C459        C  0.04932152  0.07263885  0.76905422    -0.08800
C460        C  0.00480357  0.07178434  0.75044366     0.30100
F461        F  0.97787285  0.09507623  0.71802260    -0.19300
H462        H  0.95309875  0.54681136  0.75029737     0.18500
H463        H  0.11008476  0.04820952  0.81752511     0.18500
F464        F  0.08529971  0.00009429  0.85002333    -0.19300
C465        C  0.01450090  0.83977777  0.33987439     0.80800
N466        N  0.01328887  0.83319259  0.30561207    -0.77500
C467        C  0.03051799  0.80001423  0.30175124     0.83300
N468        N  0.04827022  0.77274190  0.33221616    -0.77400
C469        C  0.04979978  0.77938611  0.36671038     0.83400
N470        N  0.03334721  0.81313158  0.37053587    -0.79100
O471        O  0.00230213  0.88695905  0.37702890    -0.57200
C472        C  0.99341673  0.50070202  0.41686427     0.75400
O473        O  0.95467967  0.49470170  0.29738748    -0.58400
C474        C  0.99549799  0.87563661  0.34347063     0.75400
C475        C  0.87090595  0.93682418  0.31469841     0.77800
Cd476      Cd  0.96058864  0.94878790  0.34804144     1.37500
O477        O  0.99400485  0.96389485  0.42208048    -0.57200
O478        O  0.90022972  0.92909114  0.35144883    -0.56000
C479        C  0.99483017  0.49652594  0.31427482     0.77700
O480        O  0.88296214  0.94956088  0.29291384    -0.58400
O481        O  0.97645164  0.51246426  0.38073854    -0.56800
O482        O  0.97154178  0.89700171  0.31269332    -0.56800
O483        O  0.01810395  0.97559791  0.34575749    -0.56000
C484        C  0.04639636  0.75454654  0.22669213     0.80800
N485        N  0.02774486  0.78141829  0.19622973    -0.77500
C486        C  0.01127139  0.81509394  0.20017946     0.83300
N487        N  0.01260460  0.82146074  0.23459655    -0.77400
C488        C  0.03013507  0.79398827  0.26485989     0.83400
N489        N  0.04739564  0.76086676  0.26090107    -0.79100
O490        O  0.06859088  0.63030061  0.14473146    -0.57200
C491        C  0.06569165  0.71885816  0.22304588     0.75400
O492        O  0.10818696  0.60029609  0.26990306    -0.58400
C493        C  0.06983650  0.59350615  0.15030057     0.75400
C494        C  0.19106744  0.65810868  0.25184637     0.77800
Cd495      Cd  0.10149174  0.64594909  0.21859718     1.37500
O496        O  0.05904267  0.70766774  0.18950446    -0.57200
O497        O  0.16174640  0.66595606  0.21513509    -0.56000
C498        C  0.06806267  0.59808489  0.25301930     0.77700
O499        O  0.17897248  0.64549109  0.27364194    -0.58400
O500        O  0.08985433  0.69754387  0.25380098    -0.56800
O501        O  0.08677063  0.58200605  0.18650417    -0.56800
O502        O  0.04452751  0.61844205  0.22113595    -0.56000
C503        C  0.01536526  0.50460053  0.09008891     0.80800
N504        N  0.01453531  0.51089447  0.05596578    -0.77500
C505        C  0.03218641  0.54382994  0.05222247     0.83300
N506        N  0.04988754  0.57116164  0.08259627    -0.77400
C507        C  0.05103484  0.56481030  0.11692542     0.83400
N508        N  0.03422921  0.53129283  0.12068495    -0.79100
O509        O  0.00272497  0.95774769  0.12722696    -0.57200
C510        C  0.99241095  0.84382393  0.16679675     0.75400
O511        O  0.88315531  0.89431359  0.04292181    -0.58400
C512        C  0.99593494  0.96901432  0.09364588     0.75400
C513        C  0.99549190  0.84829954  0.06512275     0.77800
Cd514      Cd  0.96067456  0.89605162  0.09831763     1.37500
O515        O  0.99318261  0.88060874  0.17224148    -0.57200
O516        O  0.01867284  0.86892235  0.09684791    -0.56000
C517        C  0.87078212  0.90772455  0.06422151     0.77700
O518        O  0.95529461  0.85041415  0.04786443    -0.58400
O519        O  0.97580692  0.83231899  0.13066580    -0.56800
O520        O  0.97166029  0.94781099  0.06284546    -0.56800
O521        O  0.89989896  0.91637142  0.10077047    -0.56000
C522        C  0.04823928  0.58944283  0.97736515     0.80800
N523        N  0.04936505  0.58289308  0.01159929    -0.77500
C524        C  0.03201182  0.54979236  0.01542854     0.83300
N525        N  0.01422218  0.52255165  0.48497008    -0.77400
C526        C  0.01277193  0.52912941  0.45051174     0.83400
N527        N  0.02934538  0.56280575  0.44669988    -0.79100
O528        O  0.06021371  0.63689479  0.44016807    -0.57200
C529        C  0.06897736  0.75092436  0.40034619     0.75400
O530        O  0.10881466  0.74452158  0.02064704    -0.58400
C531        C  0.06718718  0.62537879  0.97374355     0.75400
C532        C  0.19165593  0.68749227  0.00261151     0.77800
Cd533      Cd  0.10197213  0.69888593  0.46924930     1.37500
O534        O  0.06882064  0.71415517  0.39520883    -0.57200
O535        O  0.16246274  0.67935313  0.46594604    -0.56000
C536        C  0.06873152  0.74649558  0.00403853     0.77700
O537        O  0.17942813  0.70041735  0.02418385    -0.58400
O538        O  0.08536063  0.76260789  0.43638628    -0.56800
O539        O  0.09120598  0.64668190  0.00452283    -0.56800
O540        O  0.04519505  0.72581878  0.47243498    -0.56000
C541        C  0.51509062  0.59016928  0.09100290     0.80800
N542        N  0.51408602  0.58355742  0.05683601    -0.77500
C543        C  0.53121282  0.55026902  0.05300002     0.83300
N544        N  0.54863851  0.52293176  0.08337941    -0.77400
C545        C  0.54996562  0.52958032  0.11776263     0.83400
N546        N  0.53362508  0.56341541  0.12158317    -0.79100
O547        O  0.50245150  0.63733527  0.12794373    -0.57200
C548        C  0.49267835  0.75136443  0.16737545     0.75400
O549        O  0.45354661  0.74431366  0.04700497    -0.58400
C550        C  0.49608036  0.62611975  0.09453296     0.75400
C551        C  0.37095843  0.68743373  0.06512025     0.77800
Cd552      Cd  0.46059622  0.69929502  0.09878690     1.37500
O553        O  0.49415272  0.71453305  0.17278811    -0.57200
O554        O  0.40010097  0.67940553  0.10184850    -0.56000
C555        C  0.49365400  0.74736532  0.06426991     0.77700
O556        O  0.38324191  0.70034237  0.04359178    -0.58400
O557        O  0.47523619  0.76308388  0.13116470    -0.56800
O558        O  0.47246517  0.64764442  0.06381283    -0.56800
O559        O  0.51743552  0.72761958  0.09658628    -0.56000
C560        C  0.54757002  0.50460870  0.97827775     0.80800
N561        N  0.54853343  0.51105411  0.01246225    -0.77500
C562        C  0.53103139  0.54413616  0.01620864     0.83300
N563        N  0.51331787  0.57142085  0.98576632    -0.77400
C564        C  0.51201748  0.56492586  0.45138393     0.83400
N565        N  0.52869896  0.53129499  0.44763549    -0.79100
O566        O  0.56834153  0.88039663  0.39570222    -0.57200
C567        C  0.56682210  0.96885763  0.97464761     0.75400
O568        O  0.60899631  0.85028396  0.02124441    -0.58400
C569        C  0.56938690  0.84357782  0.40108416     0.75400
C570        C  0.69159613  0.90728402  0.00254144     0.77800
Cd571      Cd  0.60204413  0.89570066  0.46977084     1.37500
O572        O  0.55996785  0.95758700  0.44105051    -0.57200
O573        O  0.66219850  0.91459911  0.46570493    -0.56000
C574        C  0.56889044  0.84763387  0.00422321     0.77700
O575        O  0.67964180  0.89515067  0.02459640    -0.58400
O576        O  0.59103772  0.94753158  0.00537928    -0.56800
O577        O  0.58654773  0.83190672  0.43727089    -0.56800
O578        O  0.54516912  0.86774331  0.47217334    -0.56000
C579        C  0.54724744  0.84011511  0.22786728     0.80800
N580        N  0.52834027  0.81352432  0.19717099    -0.77500
C581        C  0.51171643  0.77986496  0.20091974     0.83300
N582        N  0.51312642  0.77323808  0.23534903    -0.77400
C583        C  0.53087142  0.80045283  0.26582793     0.83400
N584        N  0.54829693  0.83355394  0.26206997    -0.79100
O585        O  0.56810365  0.96427222  0.14604273    -0.57200
C586        C  0.56657430  0.87584988  0.22439810     0.75400
O587        O  0.67964311  0.94966283  0.27497203    -0.58400
C588        C  0.56902846  0.50108231  0.15134641     0.75400
C589        C  0.56905281  0.49678836  0.25502277     0.77800
Cd590      Cd  0.60203365  0.94899548  0.22012041     1.37500
O591        O  0.55994748  0.88721083  0.19091734    -0.57200
O592        O  0.54533473  0.97659077  0.22307191    -0.56000
C593        C  0.69173155  0.93727028  0.25311041     0.77700
O594        O  0.60913832  0.49429067  0.27185491    -0.58400
O595        O  0.59066371  0.89707431  0.25522044    -0.56800
O596        O  0.58617360  0.51278765  0.18750908    -0.56800
O597        O  0.66239044  0.92979042  0.21630692    -0.56000
C598        C  0.51520384  0.75453745  0.34088802     0.80800
N599        N  0.51404113  0.76108539  0.30661762    -0.77500
C600        C  0.53122204  0.79429078  0.30270694     0.83300
N601        N  0.54883120  0.82160591  0.33308979    -0.77400
C602        C  0.55031514  0.81502237  0.36756045     0.83400
N603        N  0.53393729  0.78126803  0.37146215    -0.79100
O604        O  0.50273800  0.70750097  0.37808112    -0.57200
C605        C  0.49293706  0.59349559  0.41783968     0.75400
O606        O  0.38295821  0.64553351  0.29406757    -0.58400
C607        C  0.49610571  0.71871334  0.34455178     0.75400
C608        C  0.49345869  0.59736932  0.31458980     0.77800
Cd609      Cd  0.46053742  0.64568803  0.34914288     1.37500
O610        O  0.49395981  0.63030945  0.42319912    -0.57200
O611        O  0.51720287  0.61765585  0.34647223    -0.56000
C612        C  0.37095829  0.65769713  0.31607928     0.77700
O613        O  0.45336928  0.59996528  0.29770813    -0.58400
O614        O  0.47586701  0.58185576  0.38166969    -0.56800
O615        O  0.47214096  0.69730812  0.31385121    -0.56800
O616        O  0.40032893  0.66508226  0.35288457    -0.56000
C617        C  0.50557405  0.52287053  0.25114792    -0.20700
C618        C  0.55020655  0.52226386  0.27092245    -0.08700
C619        C  0.57578467  0.54673107  0.30485969     0.30100
C620        C  0.55691535  0.57112590  0.31856150    -0.20700
C621        C  0.51228593  0.57175098  0.29877796    -0.08800
C622        C  0.48669678  0.54731135  0.26481499     0.30100
F623        F  0.44351567  0.54679093  0.24482934    -0.19300
H624        H  0.48505317  0.00439390  0.22487045     0.16900
H625        H  0.57743828  0.58962994  0.34481385     0.18500
F626        F  0.61894414  0.54742085  0.32470762    -0.19300
C627        C  0.55714192  0.77549690  0.06964310    -0.20700
C628        C  0.51241190  0.77290022  0.04836011    -0.08700
C629        C  0.48658028  0.79526653  0.01271438     0.30100
C630        C  0.50532858  0.81957121  0.99882868    -0.20700
C631        C  0.55006855  0.82213848  0.02010426    -0.08800
C632        C  0.57588418  0.79980230  0.05576596     0.30100
F633        F  0.61918492  0.80131473  0.07730781    -0.19300
H634        H  0.57784416  0.75869402  0.09726835     0.18500
H635        H  0.48463628  0.83638568  0.97120983     0.18500
F636        F  0.44327679  0.79381777  0.99123375    -0.19300
C637        C  0.31248114  0.68191883  0.07580818    -0.20700
C638        C  0.32510531  0.68322925  0.04882140    -0.08700
C639        C  0.29344550  0.68244481  0.00656098     0.30100
C640        C  0.25011019  0.68229901  0.49181799    -0.20700
C641        C  0.23749662  0.68331132  0.01882400    -0.08800
C642        C  0.26915553  0.68213867  0.06106841     0.30100
F643        F  0.25833777  0.68149450  0.08818485    -0.19300
H644        H  0.33620497  0.68203093  0.10848135     0.18500
H645        H  0.22637623  0.68270469  0.45914912     0.18500
F646        F  0.30426789  0.68214572  0.47944191    -0.19300
C647        C  0.81245904  0.91379434  0.07509016    -0.20700
C648        C  0.82488918  0.91178533  0.04797195    -0.08700
C649        C  0.79303312  0.91177175  0.00574208     0.30100
C650        C  0.74974502  0.91180044  0.49122367    -0.20700
C651        C  0.73736289  0.91150636  0.01842629    -0.08800
C652        C  0.76919691  0.91348937  0.06058762     0.30100
F653        F  0.75862340  0.91485740  0.08786944    -0.19300
H654        H  0.83631012  0.91431855  0.10773258     0.18500
H655        H  0.72587602  0.91077781  0.45859916     0.18500
F656        F  0.80361123  0.91144898  0.47844323    -0.19300
C657        C  0.07659318  0.79580582  0.05423411    -0.20700
C658        C  0.05001938  0.77207922  0.02001098    -0.08700
C659        C  0.00540874  0.77386107  0.00067484     0.30100
C660        C  0.98803817  0.79886831  0.01539671    -0.20700
C661        C  0.01455490  0.82262788  0.04956614    -0.08800
C662        C  0.05919232  0.82087562  0.06894817     0.30100
F663        F  0.08619706  0.84334158  0.10207647    -0.19300
H664        H  0.11096133  0.79513996  0.06958508     0.18500
H665        H  0.95366022  0.79952785  0.49998046     0.18500
F666        F  0.97832243  0.75159317  0.46740891    -0.19300
C667        C  0.29415892  0.66390760  0.25765656    -0.20700
C668        C  0.32511682  0.66194920  0.29993408    -0.08700
C669        C  0.31158659  0.66203930  0.32631067     0.30100
C670        C  0.26796594  0.66172076  0.31046139    -0.20700
C671        C  0.23696967  0.66227569  0.26814118    -0.08800
C672        C  0.25053015  0.66460455  0.24182930     0.30100
F673        F  0.22174461  0.66595288  0.20073840    -0.19300
H674        H  0.30373508  0.66437831  0.23672727     0.18500
H675        H  0.25842618  0.66039983  0.33139694     0.18500
F676        F  0.34038052  0.66067781  0.36739737    -0.19300
C677        C  0.81273035  0.93227268  0.32590399    -0.20700
C678        C  0.82511263  0.93256006  0.29871302    -0.08700
C679        C  0.79326495  0.93078101  0.25653976     0.30100
C680        C  0.74997315  0.93081008  0.24202793    -0.20700
C681        C  0.73757349  0.93292031  0.26917853    -0.08800
C682        C  0.76946427  0.93264443  0.31140361     0.30100
F683        F  0.75895656  0.93317685  0.33875087    -0.19300
H684        H  0.83660321  0.93315138  0.35853334     0.18500
H685        H  0.72610494  0.93044928  0.20938717     0.18500
F686        F  0.80387359  0.92930753  0.22928551    -0.19300
C687        C  0.98739720  0.54678494  0.26514730    -0.20700
C688        C  0.01381230  0.52221370  0.29864951    -0.08700
C689        C  0.05837268  0.52321720  0.31743437     0.30100
C690        C  0.07578796  0.54819680  0.30268436    -0.20700
C691        C  0.04932154  0.57263887  0.26905425    -0.08800
C692        C  0.00480361  0.57178436  0.25044369     0.30100
F693        F  0.97787286  0.59507624  0.21802263    -0.19300
H694        H  0.95309854  0.04681139  0.25029747     0.18500
H695        H  0.11008480  0.54820955  0.31752513     0.18500
F696        F  0.08529975  0.50009430  0.35002338    -0.19300
C697        C  0.01450082  0.83977771  0.83987428     0.80800
N698        N  0.01328879  0.83319247  0.80561197    -0.77500
C699        C  0.03051787  0.80001412  0.80175116     0.83300
N700        N  0.04827015  0.77274183  0.83221614    -0.77400
C701        C  0.04979974  0.77938610  0.86671038     0.83400
N702        N  0.03334711  0.81313155  0.87053580    -0.79100
O703        O  0.00230214  0.88695900  0.87702884    -0.57200
C704        C  0.99341665  0.50070216  0.91686418     0.75400
O705        O  0.95467978  0.49470161  0.79738743    -0.58400
C706        C  0.99549811  0.87563662  0.84347060     0.75400
C707        C  0.87090596  0.93682409  0.81469846     0.77800
Cd708      Cd  0.96058861  0.94878784  0.84804143     1.37500
O709        O  0.99400479  0.96389478  0.92208045    -0.57200
O710        O  0.90022977  0.92909104  0.85144891    -0.56000
C711        C  0.99483025  0.49652595  0.81427484     0.77700
O712        O  0.88296201  0.94956103  0.79291385    -0.58400
O713        O  0.97645160  0.51246432  0.88073844    -0.56800
O714        O  0.97154180  0.89700168  0.81269330    -0.56800
O715        O  0.01810391  0.97559797  0.84575756    -0.56000
C716        C  0.04639640  0.75454646  0.72669212     0.80800
N717        N  0.02774511  0.78141823  0.69622983    -0.77500
C718        C  0.01127141  0.81509385  0.70017950     0.83300
N719        N  0.01260465  0.82146077  0.73459658    -0.77400
C720        C  0.03013497  0.79398823  0.76485981     0.83400
N721        N  0.04739557  0.76086674  0.76090096    -0.79100
O722        O  0.06859090  0.63030065  0.64473149    -0.57200
C723        C  0.06569151  0.71885809  0.72304582     0.75400
O724        O  0.10818683  0.60029600  0.76990296    -0.58400
C725        C  0.06983644  0.59350622  0.65030055     0.75400
C726        C  0.19106751  0.65810864  0.75184647     0.77800
Cd727      Cd  0.10149180  0.64594909  0.71859717     1.37500
O728        O  0.05904270  0.70766777  0.68950446    -0.57200
O729        O  0.16174656  0.66595619  0.71513534    -0.56000
C730        C  0.06806262  0.59808504  0.75301933     0.77700
O731        O  0.17897245  0.64549107  0.77364191    -0.58400
O732        O  0.08985430  0.69754391  0.75380091    -0.56800
O733        O  0.08677062  0.58200614  0.68650411    -0.56800
O734        O  0.04452758  0.61844214  0.72113593    -0.56000
C735        C  0.01536523  0.50460062  0.59008891     0.80800
N736        N  0.01453537  0.51089443  0.55596579    -0.77500
C737        C  0.03218630  0.54383003  0.55222246     0.83300
N738        N  0.04988760  0.57116166  0.58259636    -0.77400
C739        C  0.05103470  0.56481047  0.61692541     0.83400
N740        N  0.03422918  0.53129293  0.62068496    -0.79100
O741        O  0.00272498  0.95774765  0.62722697    -0.57200
C742        C  0.99241082  0.84382388  0.66679675     0.75400
O743        O  0.88315523  0.89431370  0.54292179    -0.58400
C744        C  0.99593487  0.96901438  0.59364587     0.75400
C745        C  0.99549195  0.84829963  0.56512273     0.77800
Cd746      Cd  0.96067451  0.89605162  0.59831759     1.37500
O747        O  0.99318260  0.88060874  0.67224141    -0.57200
O748        O  0.01867277  0.86892252  0.59684781    -0.56000
C749        C  0.87078212  0.90772483  0.56422148     0.77700
O750        O  0.95529475  0.85041410  0.54786464    -0.58400
O751        O  0.97580696  0.83231895  0.63066585    -0.56800
O752        O  0.97166020  0.94781102  0.56284544    -0.56800
O753        O  0.89989901  0.91637145  0.60077049    -0.56000
C754        C  0.04823934  0.58944281  0.47736514     0.80800
N755        N  0.04936498  0.58289311  0.51159925    -0.77500
C756        C  0.03201197  0.54979222  0.51542863     0.83300
N757        N  0.01422226  0.52255174  0.98497007    -0.77400
C758        C  0.01277183  0.52912953  0.95051168     0.83400
N759        N  0.02934540  0.56280576  0.94669990    -0.79100
O760        O  0.06021393  0.63689476  0.94016819    -0.57200
C761        C  0.06897739  0.75092441  0.90034626     0.75400
O762        O  0.10881457  0.74452140  0.52064708    -0.58400
C763        C  0.06718719  0.62537874  0.47374352     0.75400
C764        C  0.19165591  0.68749238  0.50261144     0.77800
Cd765      Cd  0.10197215  0.69888605  0.96924930     1.37500
O766        O  0.06882066  0.71415517  0.89520889    -0.57200
O767        O  0.16246279  0.67935319  0.96594604    -0.56000
C768        C  0.06873149  0.74649553  0.50403862     0.77700
O769        O  0.17942823  0.70041736  0.52418387    -0.58400
O770        O  0.08536063  0.76260809  0.93638636    -0.56800
O771        O  0.09120597  0.64668181  0.50452285    -0.56800
O772        O  0.04519491  0.72581877  0.97243493    -0.56000
C773        C  0.51509058  0.59016928  0.59100280     0.80800
N774        N  0.51408603  0.58355739  0.55683592    -0.77500
C775        C  0.53121290  0.55026897  0.55300001     0.83300
N776        N  0.54863854  0.52293179  0.58337944    -0.77400
C777        C  0.54996566  0.52958038  0.61776262     0.83400
N778        N  0.53362495  0.56341545  0.62158304    -0.79100
O779        O  0.50245148  0.63733528  0.62794373    -0.57200
C780        C  0.49267831  0.75136452  0.66737540     0.75400
O781        O  0.45354671  0.74431375  0.54700511    -0.58400
C782        C  0.49608019  0.62611962  0.59453291     0.75400
C783        C  0.37095836  0.68743364  0.56512021     0.77800
Cd784      Cd  0.46059617  0.69929502  0.59878689     1.37500
O785        O  0.49415263  0.71453314  0.67278802    -0.57200
O786        O  0.40010090  0.67940544  0.60184845    -0.56000
C787        C  0.49365403  0.74736541  0.56426993     0.77700
O788        O  0.38324186  0.70034228  0.54359174    -0.58400
O789        O  0.47523612  0.76308396  0.63116464    -0.56800
O790        O  0.47246533  0.64764442  0.56381287    -0.56800
O791        O  0.51743538  0.72761948  0.59658609    -0.56000
C792        C  0.54756991  0.50460865  0.47827763     0.80800
N793        N  0.54853352  0.51105412  0.51246221    -0.77500
C794        C  0.53103140  0.54413612  0.51620861     0.83300
N795        N  0.51331784  0.57142079  0.48576630    -0.77400
C796        C  0.51201739  0.56492582  0.95138390     0.83400
N797        N  0.52869909  0.53129503  0.94763562    -0.79100
O798        O  0.56834163  0.88039664  0.89570213    -0.57200
C799        C  0.56682215  0.96885784  0.47464752     0.75400
O800        O  0.60899644  0.85028397  0.52124445    -0.58400
C801        C  0.56938702  0.84357778  0.90108420     0.75400
C802        C  0.69159613  0.90728402  0.50254141     0.77800
Cd803      Cd  0.60204414  0.89570064  0.96977086     1.37500
O804        O  0.55996794  0.95758697  0.94105056    -0.57200
O805        O  0.66219851  0.91459910  0.96570493    -0.56000
C806        C  0.56889049  0.84763380  0.50422317     0.77700
O807        O  0.67964182  0.89515058  0.52459635    -0.58400
O808        O  0.59103773  0.94753177  0.50537909    -0.56800
O809        O  0.58654787  0.83190653  0.93727098    -0.56800
O810        O  0.54516908  0.86774334  0.97217340    -0.56000
C811        C  0.54724744  0.84011513  0.72786739     0.80800
N812        N  0.52834019  0.81352442  0.69717095    -0.77500
C813        C  0.51171637  0.77986509  0.70091969     0.83300
N814        N  0.51312643  0.77323820  0.73534902    -0.77400
C815        C  0.53087143  0.80045284  0.76582801     0.83400
N816        N  0.54829689  0.83355397  0.76207009    -0.79100
O817        O  0.56810361  0.96427224  0.64604263    -0.57200
C818        C  0.56657437  0.87584987  0.72439817     0.75400
O819        O  0.67964307  0.94966282  0.77497203    -0.58400
C820        C  0.56902854  0.50108231  0.65134640     0.75400
C821        C  0.56905291  0.49678846  0.75502280     0.77800
Cd822      Cd  0.60203373  0.94899543  0.72012041     1.37500
O823        O  0.55994734  0.88721085  0.69091727    -0.57200
O824        O  0.54533483  0.97659070  0.72307195    -0.56000
C825        C  0.69173150  0.93727019  0.75311039     0.77700
O826        O  0.60913844  0.49429065  0.77185498    -0.58400
O827        O  0.59066394  0.89707423  0.75522064    -0.56800
O828        O  0.58617342  0.51278769  0.68750901    -0.56800
O829        O  0.66239044  0.92979033  0.71630686    -0.56000
C830        C  0.51520371  0.75453750  0.84088800     0.80800
N831        N  0.51404110  0.76108539  0.80661767    -0.77500
C832        C  0.53122203  0.79429077  0.80270695     0.83300
N833        N  0.54883121  0.82160593  0.83308976    -0.77400
C834        C  0.55031515  0.81502240  0.86756042     0.83400
N835        N  0.53393724  0.78126806  0.87146214    -0.79100
O836        O  0.50273791  0.70750101  0.87808114    -0.57200
C837        C  0.49293741  0.59349579  0.91783979     0.75400
O838        O  0.38295826  0.64553353  0.79406772    -0.58400
C839        C  0.49610570  0.71871331  0.84455179     0.75400
C840        C  0.49345861  0.59736934  0.81458975     0.77800
Cd841      Cd  0.46053741  0.64568808  0.84914290     1.37500
O842        O  0.49395992  0.63030973  0.92319928    -0.57200
O843        O  0.51720279  0.61765585  0.84647222    -0.56000
C844        C  0.37095826  0.65769705  0.81607935     0.77700
O845        O  0.45336921  0.59996530  0.79770814    -0.58400
O846        O  0.47586716  0.58185580  0.88166976    -0.56800
O847        O  0.47214086  0.69730815  0.81385115    -0.56800
O848        O  0.40032887  0.66508218  0.85288458    -0.56000
C849        C  0.50557401  0.52287060  0.75114782    -0.20700
C850        C  0.55020657  0.52226389  0.77092247    -0.08700
C851        C  0.57578460  0.54673115  0.80485960     0.30100
C852        C  0.55691523  0.57112588  0.81856140    -0.20700
C853        C  0.51228575  0.57175091  0.79877781    -0.08800
C854        C  0.48669662  0.54731130  0.76481487     0.30100
F855        F  0.44351553  0.54679090  0.74482927    -0.19300
H856        H  0.48505359  0.00439449  0.72487054     0.16900
H857        H  0.57743808  0.58962944  0.84481388     0.18500
F858        F  0.61894407  0.54742100  0.82470759    -0.19300
C859        C  0.55714198  0.77549692  0.56964318    -0.20700
C860        C  0.51241198  0.77290015  0.54836011    -0.08700
C861        C  0.48658037  0.79526656  0.51271452     0.30100
C862        C  0.50532865  0.81957108  0.49882874    -0.20700
C863        C  0.55006859  0.82213842  0.52010436    -0.08800
C864        C  0.57588417  0.79980223  0.55576599     0.30100
F865        F  0.61918489  0.80131484  0.57730786    -0.19300
H866        H  0.57784434  0.75869403  0.59726846     0.18500
H867        H  0.48463655  0.83638565  0.47121026     0.18500
F868        F  0.44327684  0.79381787  0.49123375    -0.19300
C869        C  0.31248090  0.68191872  0.57580807    -0.20700
C870        C  0.32510517  0.68322915  0.54882132    -0.08700
C871        C  0.29344531  0.68244473  0.50656081     0.30100
C872        C  0.25011035  0.68229909  0.99181807    -0.20700
C873        C  0.23749644  0.68331126  0.51882384    -0.08800
C874        C  0.26915533  0.68213857  0.56106828     0.30100
F875        F  0.25833769  0.68149442  0.58818480    -0.19300
H876        H  0.33620454  0.68203083  0.60848123     0.18500
H877        H  0.22637674  0.68270518  0.95914959     0.18500
F878        F  0.30426795  0.68214566  0.97944203    -0.19300
C879        C  0.81245905  0.91379441  0.57509015    -0.20700
C880        C  0.82488921  0.91178521  0.54797197    -0.08700
C881        C  0.79303319  0.91177177  0.50574212     0.30100
C882        C  0.74974495  0.91180055  0.99122369    -0.20700
C883        C  0.73736290  0.91150633  0.51842626    -0.08800
C884        C  0.76919690  0.91348926  0.56058760     0.30100
F885        F  0.75862334  0.91485736  0.58786941    -0.19300
H886        H  0.83631009  0.91431844  0.60773256     0.18500
H887        H  0.72587574  0.91077856  0.95859912     0.18500
F888        F  0.80361122  0.91144891  0.97844322    -0.19300
C889        C  0.07659305  0.79580584  0.55423412    -0.20700
C890        C  0.05001924  0.77207923  0.52001104    -0.08700
C891        C  0.00540862  0.77386109  0.50067484     0.30100
C892        C  0.98803805  0.79886827  0.51539670    -0.20700
C893        C  0.01455483  0.82262783  0.54956614    -0.08800
C894        C  0.05919221  0.82087567  0.56894812     0.30100
F895        F  0.08619708  0.84334170  0.60207634    -0.19300
H896        H  0.11096091  0.79513971  0.56958507     0.18500
H897        H  0.95366053  0.79952797  0.99998050     0.18500
F898        F  0.97832247  0.75159312  0.96740894    -0.19300
C899        C  0.29415893  0.66390749  0.75765665    -0.20700
C900        C  0.32511682  0.66194910  0.79993414    -0.08700
C901        C  0.31158654  0.66203927  0.82631073     0.30100
C902        C  0.26796589  0.66172069  0.81046142    -0.20700
C903        C  0.23696960  0.66227571  0.76814130    -0.08800
C904        C  0.25053011  0.66460455  0.74182939     0.30100
F905        F  0.22174461  0.66595304  0.70073845    -0.19300
H906        H  0.30373515  0.66437829  0.73672736     0.18500
H907        H  0.25842614  0.66039989  0.83139726     0.18500
F908        F  0.34038054  0.66067797  0.86739745    -0.19300
C909        C  0.81273025  0.93227271  0.82590394    -0.20700
C910        C  0.82511265  0.93256014  0.79871303    -0.08700
C911        C  0.79326498  0.93078105  0.75653975     0.30100
C912        C  0.74997315  0.93081000  0.74202791    -0.20700
C913        C  0.73757343  0.93292033  0.76917848    -0.08800
C914        C  0.76946418  0.93264438  0.81140352     0.30100
F915        F  0.75895652  0.93317705  0.83875082    -0.19300
H916        H  0.83660285  0.93315140  0.85853327     0.18500
H917        H  0.72610495  0.93044881  0.70938714     0.18500
F918        F  0.80387355  0.92930770  0.72928545    -0.19300
C919        C  0.98739724  0.54678498  0.76514730    -0.20700
C920        C  0.01381236  0.52221376  0.79864952    -0.08700
C921        C  0.05837271  0.52321717  0.81743429     0.30100
C922        C  0.07578802  0.54819684  0.80268437    -0.20700
C923        C  0.04932156  0.57263894  0.76905425    -0.08800
C924        C  0.00480363  0.57178431  0.75044364     0.30100
F925        F  0.97787283  0.59507619  0.71802262    -0.19300
H926        H  0.95309867  0.04681142  0.75029742     0.18500
H927        H  0.11008487  0.54820918  0.81752494     0.18500
F928        F  0.08529974  0.50009424  0.85002330    -0.19300
loop_ 
_geom_bond_atom_site_label_1 
_geom_bond_atom_site_label_2 
_geom_bond_distance 
_geom_bond_site_symmetry_2 
_ccdc_geom_bond_type 
C1            N2   1.358       .  A
C1            N6   1.355       .  A
C1           C10   1.468   1_455  S
N2            C3   1.359       .  A
C3            N4   1.364       .  A
C3           C24   1.476       .  S
N4            C5   1.361       .  A
C5            N6   1.359       .  A
C5           C65   1.469       .  S
O7           C10   1.269   1_455  A
O7          Cd12   2.491   1_455  S
C8           C62   1.469   1_655  S
C8           O17   1.262       .  A
C8          O477   1.270   1_545  A
O9           C15   1.272       .  A
O9         Cd476   2.461       .  S
C10          O18   1.262       .  A
C11         C214   1.482       .  S
C11          O16   1.267       .  A
C11          O14   1.265       .  A
Cd12         O19   2.419   1_655  S
Cd12         O18   2.438       .  S
Cd12         O13   2.514       .  S
Cd12         O16   2.482       .  S
Cd12         O14   2.468       .  S
Cd12        O473   2.461       .  S
Cd12        O481   2.425       .  S
O13         C472   1.270       .  A
C15         C224   1.479   1_665  S
C15         O483   1.266   1_655  A
O17        Cd476   2.425   1_545  S
O19         C479   1.266   1_455  A
C20          N21   1.355       .  A
C20          N25   1.359       .  A
C20          C27   1.470       .  S
N21          C22   1.359       .  A
C22          N23   1.361       .  A
C22          C46   1.469   1_455  S
N23          C24   1.364       .  A
C24          N25   1.359       .  A
O26          C29   1.270       .  A
O26         Cd31   2.515       .  S
C27          O36   1.262       .  A
C27          O32   1.270       .  A
O28          C34   1.272       .  A
O28         Cd31   2.464       .  S
C29          C43   1.468       .  S
C29          O37   1.262       .  A
C30         C207   1.483       .  S
C30          O35   1.267       .  A
C30          O33   1.265       .  A
Cd31         O38   2.415       .  S
Cd31         O37   2.427       .  S
Cd31         O36   2.442       .  S
Cd31         O32   2.499       .  S
Cd31         O35   2.478       .  S
Cd31         O33   2.468       .  S
C34         C227   1.479       .  S
C34          O38   1.266       .  A
C39          N40   1.359       .  A
C39          N44   1.355       .  A
C39         C512   1.469   1_445  S
N40          C41   1.359       .  A
C41          N42   1.364       .  A
C41          C60   1.476       .  S
N42          C43   1.361       .  A
C43          N44   1.359       .  A
O45          C48   1.269   1_455  A
O45         Cd50   2.493   1_455  S
C46          O55   1.262       .  A
C46          O51   1.270       .  A
O47          C53   1.267       .  A
O47         Cd50   2.482       .  S
C48         C503   1.469   1_655  S
C48          O56   1.262       .  A
C49         C197   1.479   1_655  S
C49          O54   1.272       .  A
C49          O52   1.266   1_655  A
Cd50         O57   2.466       .  S
Cd50         O56   2.441       .  S
Cd50         O55   2.422       .  S
Cd50         O51   2.518       .  S
Cd50         O54   2.457       .  S
Cd50         O52   2.422   1_655  S
C53         C184   1.482       .  S
C53          O57   1.265       .  A
C58          N59   1.359   1_556  A
C58         N295   1.355       .  A
C58          C67   1.469       .  S
N59          C60   1.359       .  A
C60         N293   1.364   1_554  A
N61          C62   1.361       .  A
N61         C292   1.364       .  A
C62          N63   1.359       .  A
N63         C290   1.355       .  A
O64         C299   1.269       .  A
O64         Cd69   2.498       .  S
C65          O74   1.262       .  A
C65          O70   1.270       .  A
O66          C72   1.272       .  A
O66        Cd301   2.465   1_554  S
C67          O75   1.262   1_556  A
C67         O296   1.269       .  A
C68         C177   1.481       .  S
C68          O73   1.266       .  A
C68         O303   1.265   1_554  A
Cd69         O76   2.414       .  S
Cd69         O74   2.427       .  S
Cd69         O70   2.517       .  S
Cd69         O71   2.468       .  S
Cd69        O298   2.465       .  S
Cd69        O307   2.442       .  S
Cd69        O305   2.477       .  S
O71         C300   1.265       .  A
C72         C194   1.479       .  S
C72         O308   1.266   1_554  A
O73        Cd301   2.477   1_554  S
O75        Cd301   2.442   1_554  S
O76         C304   1.266       .  A
C77          N78   1.359       .  A
C77          N82   1.355       .  A
C77          C86   1.469       .  S
N78          C79   1.359       .  A
C79          N80   1.364       .  A
C79          C98   1.477       .  S
N80          C81   1.361       .  A
C81          N82   1.359       .  A
C81         C124   1.468       .  S
O83          C86   1.269       .  A
O83         Cd88   2.497       .  S
C84         C117   1.468       .  S
C84          O93   1.262       .  A
C84          O89   1.270       .  A
O85          C91   1.271       .  A
O85         Cd88   2.461       .  S
C86          O94   1.262       .  A
C87         C174   1.481       .  S
C87          O92   1.266       .  A
C87          O90   1.265       .  A
Cd88         O95   2.414       .  S
Cd88         O94   2.442       .  S
Cd88         O93   2.427       .  S
Cd88         O89   2.513       .  S
Cd88         O92   2.476       .  S
Cd88         O90   2.467       .  S
C91         C164   1.477       .  S
C91          O95   1.266       .  A
C96          N97   1.360   1_556  A
C96         N333   1.355       .  A
C96         C567   1.470   1_545  S
N97          C98   1.360       .  A
C98          N99   1.364   1_554  A
N99         C332   1.361       .  A
C100        N101   1.359       .  A
C100        N331   1.361       .  A
C100        C141   1.469       .  S
N101        C328   1.355       .  A
O102        C105   1.270       .  A
O102       Cd107   2.515       .  S
C103        C560   1.470       .  S
C103        O112   1.262   1_556  A
C103        O340   1.269       .  A
O104        C110   1.272       .  A
O104       Cd339   2.461   1_554  S
C105        C138   1.469       .  S
C105        O113   1.262       .  A
C106        C187   1.482       .  S
C106        O111   1.267       .  A
C106        O341   1.265   1_554  A
Cd107       O114   2.414       .  S
Cd107       O113   2.427       .  S
Cd107       O108   2.497       .  S
Cd107       O109   2.468       .  S
Cd107       O336   2.461       .  S
Cd107       O344   2.447       .  S
Cd107       O343   2.479       .  S
O108        C335   1.269       .  A
O109        C338   1.265       .  A
C110        C167   1.478       .  S
C110        O346   1.266   1_554  A
O111       Cd339   2.479   1_554  S
O112       Cd339   2.447   1_554  S
O114        C342   1.266       .  A
C115        N116   1.355       .  A
C115        N120   1.359       .  A
C115        C122   1.469       .  S
N116        C117   1.359       .  A
C117        N118   1.361       .  A
N118        C119   1.364       .  A
C119        N120   1.359       .  A
C119        C136   1.477       .  S
O121        C588   1.270       .  A
O121       Cd126   2.513       .  S
C122        O131   1.262       .  A
C122        O127   1.269       .  A
O123        C129   1.266       .  A
O123       Cd126   2.480       .  S
C124        O132   1.262       .  A
C124        O585   1.270   1_545  A
C125        C154   1.478   1_565  S
C125        O130   1.272       .  A
C125        O592   1.266       .  A
Cd126       O133   2.472       .  S
Cd126       O131   2.442       .  S
Cd126       O127   2.497       .  S
Cd126       O128   2.415       .  S
Cd126       O596   2.427       .  S
Cd126       O594   2.465       .  S
O128        C589   1.266       .  A
C129        C217   1.483       .  S
C129        O133   1.265       .  A
O130       Cd590   2.465       .  S
O132       Cd590   2.427   1_545  S
C134        N135   1.359       .  A
C134        N139   1.355       .  A
C134        C143   1.470       .  S
N135        C136   1.360       .  A
C136        N137   1.364       .  A
N137        C138   1.361       .  A
C138        N139   1.359       .  A
O140        C143   1.269       .  A
O140       Cd145   2.499       .  S
C141        O150   1.262       .  A
C141        O146   1.270       .  A
O142        C148   1.267       .  A
O142       Cd145   2.481       .  S
C143        O151   1.262       .  A
C144        C157   1.478       .  S
C144        O149   1.272       .  A
C144        O147   1.266       .  A
Cd145       O152   2.467       .  S
Cd145       O151   2.444       .  S
Cd145       O150   2.428       .  S
Cd145       O146   2.516       .  S
Cd145       O149   2.464       .  S
Cd145       O147   2.413       .  S
C148        C204   1.482       .  S
C148        O152   1.264       .  A
C153        C154   1.407       .  A
C153        C158   1.396       .  A
C153        H624   1.083       .  S
C154        C155   1.406       .  A
C155        C156   1.396       .  A
C155        F162   1.357       .  S
C156        C157   1.407       .  A
C156        H161   1.083       .  S
C157        C158   1.406       .  A
C158        F159   1.357       .  S
H160        C617   1.083       .  S
C163        C164   1.407       .  A
C163        C168   1.396       .  A
C163        H170   1.083       .  S
C164        C165   1.406       .  A
C165        C166   1.396   1_554  A
C165        F172   1.357   1_554  S
C166        C167   1.407   1_556  A
C166        H171   1.083       .  S
C167        C168   1.405       .  A
C168        F169   1.357       .  S
C173        C174   1.406       .  A
C173        C178   1.399       .  A
C173        H180   1.083       .  S
C174        C175   1.407       .  A
C175        C408   1.399   1_554  A
C175        F414   1.357   1_554  S
C176        C407   1.399       .  A
C176        C409   1.406       .  A
C176        H181   1.083       .  S
C177        C178   1.407       .  A
C177        C408   1.406   1_554  A
C178        F179   1.357       .  S
F182        C407   1.357       .  S
C183        C184   1.406       .  A
C183        C188   1.399       .  A
C183        H190   1.083       .  S
C184        C185   1.407       .  A
C185        C418   1.400   1_554  A
C185        F424   1.357   1_554  S
C186        C417   1.400       .  A
C186        C419   1.406       .  A
C186        H191   1.083       .  S
C187        C188   1.407       .  A
C187        C418   1.406   1_554  A
C188        F189   1.357       .  S
F192        C417   1.357       .  S
C193        C194   1.403       .  A
C193        C198   1.397       .  A
C193        H200   1.083       .  S
C194        C195   1.410       .  A
C195        C196   1.395   1_455  A
C195        F434   1.357   1_454  S
C196        C197   1.402   1_655  A
C196        H433   1.083   1_554  S
C197        C198   1.410       .  A
C198        F199   1.357       .  S
H201        C428   1.083       .  S
F202        C427   1.357   1_655  S
C203        C204   1.404       .  A
C203        C208   1.400       .  A
C203        H210   1.083       .  S
C204        C205   1.409       .  A
C205        C206   1.399       .  A
C205        F212   1.357       .  S
C206        C207   1.404       .  A
C206        H211   1.083       .  S
C207        C208   1.409       .  A
C208        F209   1.357       .  S
C213        C214   1.406       .  A
C213        C218   1.399       .  A
C213        H220   1.083       .  S
C214        C215   1.407       .  A
C215        C216   1.400       .  A
C215        F222   1.357       .  S
C216        C217   1.406       .  A
C216        H221   1.083       .  S
C217        C218   1.407       .  A
C218        F219   1.357       .  S
C223        C224   1.402   1_655  A
C223        C228   1.396   1_655  A
C223        H694   1.083       .  S
C224        C225   1.410       .  A
C225        C226   1.397       .  A
C225        F232   1.357       .  S
C226        C227   1.403       .  A
C226        H231   1.083       .  S
C227        C228   1.410       .  A
C228        F229   1.357   1_455  S
H230        C687   1.083       .  S
C233        N234   1.358       .  A
C233        N238   1.355       .  A
C233        C242   1.468   1_455  S
N234        C235   1.359       .  A
C235        N236   1.364       .  A
C235        C256   1.476       .  S
N236        C237   1.361       .  A
C237        N238   1.359       .  A
C237        C297   1.469       .  S
O239        C242   1.269   1_455  A
O239       Cd244   2.491   1_455  S
C240        C294   1.469   1_655  S
C240        O249   1.262       .  A
C240        O709   1.270   1_545  A
O241        C247   1.272       .  A
O241       Cd708   2.461       .  S
C242        O250   1.262       .  A
C243        C446   1.482       .  S
C243        O248   1.267       .  A
C243        O246   1.265       .  A
Cd244       O705   2.461       .  S
Cd244       O251   2.419   1_655  S
Cd244       O250   2.438       .  S
Cd244       O713   2.425       .  S
Cd244       O245   2.514       .  S
Cd244       O248   2.482       .  S
Cd244       O246   2.468       .  S
O245        C704   1.270       .  A
C247        C456   1.479   1_665  S
C247        O715   1.266   1_655  A
O249       Cd708   2.425   1_545  S
O251        C711   1.266   1_455  A
C252        N253   1.355       .  A
C252        N257   1.359       .  A
C252        C259   1.470       .  S
N253        C254   1.359       .  A
C254        N255   1.361       .  A
C254        C278   1.469   1_455  S
N255        C256   1.364       .  A
C256        N257   1.359       .  A
O258        C261   1.270       .  A
O258       Cd263   2.515       .  S
C259        O268   1.262       .  A
C259        O264   1.270       .  A
O260        C266   1.272       .  A
O260       Cd263   2.464       .  S
C261        C275   1.468       .  S
C261        O269   1.262       .  A
C262        C439   1.483       .  S
C262        O267   1.267       .  A
C262        O265   1.265       .  A
Cd263       O270   2.415       .  S
Cd263       O269   2.427       .  S
Cd263       O268   2.442       .  S
Cd263       O264   2.499       .  S
Cd263       O267   2.478       .  S
Cd263       O265   2.468       .  S
C266        C459   1.479       .  S
C266        O270   1.266       .  A
C271        N272   1.359       .  A
C271        N276   1.355       .  A
C271        C744   1.469   1_445  S
N272        C273   1.359       .  A
C273        N274   1.364       .  A
C273        C292   1.476       .  S
N274        C275   1.361       .  A
C275        N276   1.359       .  A
O277        C280   1.269   1_455  A
O277       Cd282   2.493   1_455  S
C278        O287   1.262       .  A
C278        O283   1.270       .  A
O279        C285   1.267       .  A
O279       Cd282   2.482       .  S
C280        C735   1.469   1_655  S
C280        O288   1.262       .  A
C281        C429   1.479   1_655  S
C281        O286   1.272       .  A
C281        O284   1.266   1_655  A
Cd282       O289   2.466       .  S
Cd282       O288   2.441       .  S
Cd282       O287   2.422       .  S
Cd282       O283   2.518       .  S
Cd282       O286   2.457       .  S
Cd282       O284   2.422   1_655  S
C285        C416   1.482       .  S
C285        O289   1.265       .  A
C290        N291   1.359       .  A
C290        C299   1.469       .  S
N291        C292   1.359       .  A
N293        C294   1.361       .  A
C294        N295   1.359       .  A
O296       Cd301   2.498       .  S
C297        O306   1.262       .  A
C297        O302   1.270       .  A
O298        C304   1.272       .  A
C299        O307   1.262       .  A
C300        C409   1.481       .  S
C300        O305   1.266       .  A
Cd301       O308   2.414       .  S
Cd301       O306   2.427       .  S
Cd301       O302   2.517       .  S
Cd301       O303   2.468       .  S
C304        C426   1.479       .  S
C309        N310   1.359       .  A
C309        N314   1.355       .  A
C309        C318   1.469       .  S
N310        C311   1.359       .  A
C311        N312   1.364       .  A
C311        C330   1.477       .  S
N312        C313   1.361       .  A
C313        N314   1.359       .  A
C313        C356   1.468       .  S
O315        C318   1.269       .  A
O315       Cd320   2.497       .  S
C316        C349   1.468       .  S
C316        O325   1.262       .  A
C316        O321   1.270       .  A
O317        C323   1.271       .  A
O317       Cd320   2.461       .  S
C318        O326   1.262       .  A
C319        C406   1.481       .  S
C319        O324   1.266       .  A
C319        O322   1.265       .  A
Cd320       O327   2.414       .  S
Cd320       O326   2.442       .  S
Cd320       O325   2.427       .  S
Cd320       O321   2.513       .  S
Cd320       O324   2.476       .  S
Cd320       O322   2.467       .  S
C323        C396   1.477       .  S
C323        O327   1.266       .  A
C328        N329   1.360       .  A
C328        C799   1.470   1_545  S
N329        C330   1.360       .  A
C330        N331   1.364       .  A
C332        N333   1.359       .  A
C332        C373   1.469       .  S
O334        C337   1.270       .  A
O334       Cd339   2.515       .  S
C335        C792   1.470       .  S
C335        O344   1.262       .  A
O336        C342   1.272       .  A
C337        C370   1.469       .  S
C337        O345   1.262       .  A
C338        C419   1.482       .  S
C338        O343   1.267       .  A
Cd339       O346   2.414       .  S
Cd339       O345   2.427       .  S
Cd339       O340   2.497       .  S
Cd339       O341   2.468       .  S
C342        C399   1.478       .  S
C347        N348   1.355       .  A
C347        N352   1.359       .  A
C347        C354   1.469       .  S
N348        C349   1.359       .  A
C349        N350   1.361       .  A
N350        C351   1.364       .  A
C351        N352   1.359       .  A
C351        C368   1.477       .  S
O353        C820   1.270       .  A
O353       Cd358   2.513       .  S
C354        O363   1.262       .  A
C354        O359   1.269       .  A
O355        C361   1.266       .  A
O355       Cd358   2.480       .  S
C356        O817   1.270   1_545  A
C356        O364   1.262       .  A
C357        C386   1.478   1_565  S
C357        O362   1.272       .  A
C357        O824   1.266       .  A
Cd358       O365   2.472       .  S
Cd358       O828   2.427       .  S
Cd358       O363   2.442       .  S
Cd358       O359   2.497       .  S
Cd358       O826   2.465       .  S
Cd358       O360   2.415       .  S
O360        C821   1.266       .  A
C361        C449   1.483       .  S
C361        O365   1.265       .  A
O362       Cd822   2.465       .  S
O364       Cd822   2.427   1_545  S
C366        N367   1.359       .  A
C366        N371   1.355       .  A
C366        C375   1.470       .  S
N367        C368   1.360       .  A
C368        N369   1.364       .  A
N369        C370   1.361       .  A
C370        N371   1.359       .  A
O372        C375   1.269       .  A
O372       Cd377   2.499       .  S
C373        O382   1.262       .  A
C373        O378   1.270       .  A
O374        C380   1.267       .  A
O374       Cd377   2.481       .  S
C375        O383   1.262       .  A
C376        C389   1.478       .  S
C376        O381   1.272       .  A
C376        O379   1.266       .  A
Cd377       O384   2.467       .  S
Cd377       O383   2.444       .  S
Cd377       O382   2.428       .  S
Cd377       O378   2.516       .  S
Cd377       O381   2.464       .  S
Cd377       O379   2.413       .  S
C380        C436   1.482       .  S
C380        O384   1.264       .  A
C385        C386   1.407       .  A
C385        C390   1.396       .  A
C385        H856   1.083       .  S
C386        C387   1.406       .  A
C387        C388   1.396       .  A
C387        F394   1.357       .  S
C388        C389   1.407       .  A
C388        H393   1.083       .  S
C389        C390   1.406       .  A
C390        F391   1.357       .  S
H392        C849   1.083       .  S
C395        C396   1.407       .  A
C395        C400   1.396       .  A
C395        H402   1.083       .  S
C396        C397   1.406       .  A
C397        C398   1.396       .  A
C397        F404   1.357       .  S
C398        C399   1.407       .  A
C398        H403   1.083       .  S
C399        C400   1.405       .  A
C400        F401   1.357       .  S
C405        C406   1.406       .  A
C405        C410   1.399       .  A
C405        H412   1.083       .  S
C406        C407   1.407       .  A
C408        H413   1.083       .  S
C409        C410   1.407       .  A
C410        F411   1.357       .  S
C415        C416   1.406       .  A
C415        C420   1.399       .  A
C415        H422   1.083       .  S
C416        C417   1.407       .  A
C418        H423   1.083       .  S
C419        C420   1.407       .  A
C420        F421   1.357       .  S
C425        C426   1.403       .  A
C425        C430   1.397       .  A
C425        H432   1.083       .  S
C426        C427   1.410       .  A
C427        C428   1.395   1_455  A
C428        C429   1.402   1_655  A
C429        C430   1.410       .  A
C430        F431   1.357       .  S
C435        C436   1.404       .  A
C435        C440   1.400       .  A
C435        H442   1.083       .  S
C436        C437   1.409       .  A
C437        C438   1.399       .  A
C437        F444   1.357       .  S
C438        C439   1.404       .  A
C438        H443   1.083       .  S
C439        C440   1.409       .  A
C440        F441   1.357       .  S
C445        C446   1.406       .  A
C445        C450   1.399       .  A
C445        H452   1.083       .  S
C446        C447   1.407       .  A
C447        C448   1.400       .  A
C447        F454   1.357       .  S
C448        C449   1.406       .  A
C448        H453   1.083       .  S
C449        C450   1.407       .  A
C450        F451   1.357       .  S
C455        C456   1.402   1_655  A
C455        C460   1.396   1_655  A
C455        H926   1.083       .  S
C456        C457   1.410       .  A
C457        C458   1.397       .  A
C457        F464   1.357       .  S
C458        C459   1.403       .  A
C458        H463   1.083       .  S
C459        C460   1.410       .  A
C460        F461   1.357   1_455  S
H462        C919   1.083       .  S
C465        N466   1.358       .  A
C465        N470   1.355       .  A
C465        C474   1.468   1_455  S
N466        C467   1.359       .  A
C467        N468   1.364       .  A
C467        C488   1.476       .  S
N468        C469   1.361       .  A
C469        N470   1.359       .  A
C469        C529   1.469       .  S
O471        C474   1.269   1_455  A
O471       Cd476   2.491   1_455  S
C472        C526   1.469   1_655  S
C472        O481   1.262       .  A
O473        C479   1.272       .  A
C474        O482   1.262       .  A
C475        C678   1.482       .  S
C475        O480   1.267       .  A
C475        O478   1.265       .  A
Cd476       O483   2.419   1_655  S
Cd476       O482   2.438       .  S
Cd476       O477   2.514       .  S
Cd476       O480   2.482       .  S
Cd476       O478   2.468       .  S
C479        C688   1.479   1_655  S
C484        N485   1.355       .  A
C484        N489   1.359       .  A
C484        C491   1.470       .  S
N485        C486   1.359       .  A
C486        N487   1.361       .  A
C486        C510   1.469   1_455  S
N487        C488   1.364       .  A
C488        N489   1.359       .  A
O490        C493   1.270       .  A
O490       Cd495   2.515       .  S
C491        O500   1.262       .  A
C491        O496   1.270       .  A
O492        C498   1.272       .  A
O492       Cd495   2.464       .  S
C493        C507   1.468       .  S
C493        O501   1.262       .  A
C494        C671   1.483       .  S
C494        O499   1.267       .  A
C494        O497   1.265       .  A
Cd495       O502   2.415       .  S
Cd495       O501   2.427       .  S
Cd495       O500   2.442       .  S
Cd495       O496   2.499       .  S
Cd495       O499   2.478       .  S
Cd495       O497   2.468       .  S
C498        C691   1.479       .  S
C498        O502   1.266       .  A
C503        N504   1.359       .  A
C503        N508   1.355       .  A
N504        C505   1.359       .  A
C505        N506   1.364       .  A
C505        C524   1.476       .  S
N506        C507   1.361       .  A
C507        N508   1.359       .  A
O509        C512   1.269   1_455  A
O509       Cd514   2.493   1_455  S
C510        O519   1.262       .  A
C510        O515   1.270       .  A
O511        C517   1.267       .  A
O511       Cd514   2.482       .  S
C512        O520   1.262       .  A
C513        C661   1.479   1_655  S
C513        O518   1.272       .  A
C513        O516   1.266   1_655  A
Cd514       O521   2.466       .  S
Cd514       O520   2.441       .  S
Cd514       O519   2.422       .  S
Cd514       O515   2.518       .  S
Cd514       O518   2.457       .  S
Cd514       O516   2.422   1_655  S
C517        C648   1.482       .  S
C517        O521   1.265       .  A
C522        N523   1.359   1_556  A
C522        N759   1.355       .  A
C522        C531   1.469       .  S
N523        C524   1.359       .  A
C524        N757   1.364   1_554  A
N525        C756   1.364       .  A
N525        C526   1.361       .  A
C526        N527   1.359       .  A
N527        C754   1.355       .  A
O528        C763   1.269       .  A
O528       Cd533   2.498       .  S
C529        O538   1.262       .  A
C529        O534   1.270       .  A
O530        C536   1.272       .  A
O530       Cd765   2.465   1_554  S
C531        O760   1.269       .  A
C531        O539   1.262   1_556  A
C532        C641   1.481       .  S
C532        O537   1.266       .  A
C532        O767   1.265   1_554  A
Cd533       O762   2.465       .  S
Cd533       O540   2.414       .  S
Cd533       O771   2.442       .  S
Cd533       O538   2.427       .  S
Cd533       O534   2.517       .  S
Cd533       O769   2.477       .  S
Cd533       O535   2.468       .  S
O535        C764   1.265       .  A
C536        C658   1.479       .  S
C536        O772   1.266   1_554  A
O537       Cd765   2.477   1_554  S
O539       Cd765   2.442   1_554  S
O540        C768   1.266       .  A
C541        N542   1.359       .  A
C541        N546   1.355       .  A
C541        C550   1.469       .  S
N542        C543   1.359       .  A
C543        N544   1.364       .  A
C543        C562   1.477       .  S
N544        C545   1.361       .  A
C545        N546   1.359       .  A
C545        C588   1.468       .  S
O547        C550   1.269       .  A
O547       Cd552   2.497       .  S
C548        C581   1.468       .  S
C548        O557   1.262       .  A
C548        O553   1.270       .  A
O549        C555   1.271       .  A
O549       Cd552   2.461       .  S
C550        O558   1.262       .  A
C551        C638   1.481       .  S
C551        O556   1.266       .  A
C551        O554   1.265       .  A
Cd552       O559   2.414       .  S
Cd552       O558   2.442       .  S
Cd552       O557   2.427       .  S
Cd552       O553   2.513       .  S
Cd552       O556   2.476       .  S
Cd552       O554   2.467       .  S
C555        C628   1.477       .  S
C555        O559   1.266       .  A
C560        N561   1.360   1_556  A
C560        N797   1.355       .  A
N561        C562   1.360       .  A
C562        N563   1.364   1_554  A
N563        C796   1.361       .  A
C564        N795   1.361       .  A
C564        N565   1.359       .  A
C564        C605   1.469       .  S
N565        C792   1.355       .  A
O566        C569   1.270       .  A
O566       Cd571   2.515       .  S
C567        O576   1.262   1_556  A
C567        O804   1.269       .  A
O568        C574   1.272       .  A
O568       Cd803   2.461   1_554  S
C569        C602   1.469       .  S
C569        O577   1.262       .  A
C570        C651   1.482       .  S
C570        O575   1.267       .  A
C570        O805   1.265   1_554  A
Cd571       O800   2.461       .  S
Cd571       O578   2.414       .  S
Cd571       O577   2.427       .  S
Cd571       O808   2.447       .  S
Cd571       O572   2.497       .  S
Cd571       O807   2.479       .  S
Cd571       O573   2.468       .  S
O572        C799   1.269       .  A
O573        C802   1.265       .  A
C574        C631   1.478       .  S
C574        O810   1.266   1_554  A
O575       Cd803   2.479   1_554  S
O576       Cd803   2.447   1_554  S
O578        C806   1.266       .  A
C579        N580   1.355       .  A
C579        N584   1.359       .  A
C579        C586   1.469       .  S
N580        C581   1.359       .  A
C581        N582   1.361       .  A
N582        C583   1.364       .  A
C583        N584   1.359       .  A
C583        C600   1.477       .  S
O585       Cd590   2.513       .  S
C586        O595   1.262       .  A
C586        O591   1.269       .  A
O587        C593   1.266       .  A
O587       Cd590   2.480       .  S
C588        O596   1.262       .  A
C589        C618   1.478       .  S
C589        O594   1.272       .  A
Cd590       O597   2.472       .  S
Cd590       O595   2.442       .  S
Cd590       O591   2.497       .  S
Cd590       O592   2.415       .  S
C593        C681   1.483       .  S
C593        O597   1.265       .  A
C598        N599   1.359       .  A
C598        N603   1.355       .  A
C598        C607   1.470       .  S
N599        C600   1.360       .  A
C600        N601   1.364       .  A
N601        C602   1.361       .  A
C602        N603   1.359       .  A
O604        C607   1.269       .  A
O604       Cd609   2.499       .  S
C605        O614   1.262       .  A
C605        O610   1.270       .  A
O606        C612   1.267       .  A
O606       Cd609   2.481       .  S
C607        O615   1.262       .  A
C608        C621   1.478       .  S
C608        O613   1.272       .  A
C608        O611   1.266       .  A
Cd609       O616   2.467       .  S
Cd609       O615   2.444       .  S
Cd609       O614   2.428       .  S
Cd609       O610   2.516       .  S
Cd609       O613   2.464       .  S
Cd609       O611   2.413       .  S
C612        C668   1.482       .  S
C612        O616   1.264       .  A
C617        C618   1.407       .  A
C617        C622   1.396       .  A
C618        C619   1.406       .  A
C619        C620   1.396       .  A
C619        F626   1.357       .  S
C620        C621   1.407       .  A
C620        H625   1.083       .  S
C621        C622   1.406       .  A
C622        F623   1.357       .  S
C627        C628   1.407       .  A
C627        C632   1.396       .  A
C627        H634   1.083       .  S
C628        C629   1.406       .  A
C629        C630   1.396   1_554  A
C629        F636   1.357   1_554  S
C630        C631   1.407   1_556  A
C630        H635   1.083       .  S
C631        C632   1.405       .  A
C632        F633   1.357       .  S
C637        C638   1.406       .  A
C637        C642   1.399       .  A
C637        H644   1.083       .  S
C638        C639   1.407       .  A
C639        C872   1.399   1_554  A
C639        F878   1.357   1_554  S
C640        C871   1.399       .  A
C640        C873   1.406       .  A
C640        H645   1.083       .  S
C641        C872   1.406   1_554  A
C641        C642   1.407       .  A
C642        F643   1.357       .  S
F646        C871   1.357       .  S
C647        C648   1.406       .  A
C647        C652   1.399       .  A
C647        H654   1.083       .  S
C648        C649   1.407       .  A
C649        C882   1.400   1_554  A
C649        F888   1.357   1_554  S
C650        C881   1.400       .  A
C650        C883   1.406       .  A
C650        H655   1.083       .  S
C651        C882   1.406   1_554  A
C651        C652   1.407       .  A
C652        F653   1.357       .  S
F656        C881   1.357       .  S
C657        C658   1.403       .  A
C657        C662   1.397       .  A
C657        H664   1.083       .  S
C658        C659   1.410       .  A
C659        C660   1.395   1_455  A
C659        F898   1.357   1_454  S
C660        C661   1.402   1_655  A
C660        H897   1.083   1_554  S
C661        C662   1.410       .  A
C662        F663   1.357       .  S
H665        C892   1.083       .  S
F666        C891   1.357   1_655  S
C667        C668   1.404       .  A
C667        C672   1.400       .  A
C667        H674   1.083       .  S
C668        C669   1.409       .  A
C669        C670   1.399       .  A
C669        F676   1.357       .  S
C670        C671   1.404       .  A
C670        H675   1.083       .  S
C671        C672   1.409       .  A
C672        F673   1.357       .  S
C677        C678   1.406       .  A
C677        C682   1.399       .  A
C677        H684   1.083       .  S
C678        C679   1.407       .  A
C679        C680   1.400       .  A
C679        F686   1.357       .  S
C680        C681   1.406       .  A
C680        H685   1.083       .  S
C681        C682   1.407       .  A
C682        F683   1.357       .  S
C687        C688   1.402   1_655  A
C687        C692   1.396   1_655  A
C688        C689   1.410       .  A
C689        C690   1.397       .  A
C689        F696   1.357       .  S
C690        C691   1.403       .  A
C690        H695   1.083       .  S
C691        C692   1.410       .  A
C692        F693   1.357   1_455  S
C697        N698   1.358       .  A
C697        N702   1.355       .  A
C697        C706   1.468   1_455  S
N698        C699   1.359       .  A
C699        N700   1.364       .  A
C699        C720   1.476       .  S
N700        C701   1.361       .  A
C701        N702   1.359       .  A
C701        C761   1.469       .  S
O703        C706   1.269   1_455  A
O703       Cd708   2.491   1_455  S
C704        C758   1.469   1_655  S
C704        O713   1.262       .  A
O705        C711   1.272       .  A
C706        O714   1.262       .  A
C707        C910   1.482       .  S
C707        O712   1.267       .  A
C707        O710   1.265       .  A
Cd708       O715   2.419   1_655  S
Cd708       O714   2.438       .  S
Cd708       O709   2.514       .  S
Cd708       O712   2.482       .  S
Cd708       O710   2.468       .  S
C711        C920   1.479   1_655  S
C716        N717   1.355       .  A
C716        N721   1.359       .  A
C716        C723   1.470       .  S
N717        C718   1.359       .  A
C718        N719   1.361       .  A
C718        C742   1.469   1_455  S
N719        C720   1.364       .  A
C720        N721   1.359       .  A
O722        C725   1.270       .  A
O722       Cd727   2.515       .  S
C723        O732   1.262       .  A
C723        O728   1.270       .  A
O724        C730   1.272       .  A
O724       Cd727   2.464       .  S
C725        C739   1.468       .  S
C725        O733   1.262       .  A
C726        C903   1.483       .  S
C726        O731   1.267       .  A
C726        O729   1.265       .  A
Cd727       O734   2.415       .  S
Cd727       O733   2.427       .  S
Cd727       O732   2.442       .  S
Cd727       O728   2.499       .  S
Cd727       O731   2.478       .  S
Cd727       O729   2.468       .  S
C730        C923   1.479       .  S
C730        O734   1.266       .  A
C735        N736   1.359       .  A
C735        N740   1.355       .  A
N736        C737   1.359       .  A
C737        N738   1.364       .  A
C737        C756   1.476       .  S
N738        C739   1.361       .  A
C739        N740   1.359       .  A
O741        C744   1.269   1_455  A
O741       Cd746   2.493   1_455  S
C742        O751   1.262       .  A
C742        O747   1.270       .  A
O743        C749   1.267       .  A
O743       Cd746   2.482       .  S
C744        O752   1.262       .  A
C745        C893   1.479   1_655  S
C745        O750   1.272       .  A
C745        O748   1.266   1_655  A
Cd746       O753   2.466       .  S
Cd746       O752   2.441       .  S
Cd746       O751   2.422       .  S
Cd746       O747   2.518       .  S
Cd746       O750   2.457       .  S
Cd746       O748   2.422   1_655  S
C749        C880   1.482       .  S
C749        O753   1.265       .  A
C754        N755   1.359       .  A
C754        C763   1.469       .  S
N755        C756   1.359       .  A
N757        C758   1.361       .  A
C758        N759   1.359       .  A
O760       Cd765   2.498       .  S
C761        O770   1.262       .  A
C761        O766   1.270       .  A
O762        C768   1.272       .  A
C763        O771   1.262       .  A
C764        C873   1.481       .  S
C764        O769   1.266       .  A
Cd765       O772   2.414       .  S
Cd765       O770   2.427       .  S
Cd765       O766   2.517       .  S
Cd765       O767   2.468       .  S
C768        C890   1.479       .  S
C773        N774   1.359       .  A
C773        N778   1.355       .  A
C773        C782   1.469       .  S
N774        C775   1.359       .  A
C775        N776   1.364       .  A
C775        C794   1.477       .  S
N776        C777   1.361       .  A
C777        N778   1.359       .  A
C777        C820   1.468       .  S
O779        C782   1.269       .  A
O779       Cd784   2.497       .  S
C780        C813   1.468       .  S
C780        O789   1.262       .  A
C780        O785   1.270       .  A
O781        C787   1.271       .  A
O781       Cd784   2.461       .  S
C782        O790   1.262       .  A
C783        C870   1.481       .  S
C783        O788   1.266       .  A
C783        O786   1.265       .  A
Cd784       O791   2.414       .  S
Cd784       O790   2.442       .  S
Cd784       O789   2.427       .  S
Cd784       O785   2.513       .  S
Cd784       O788   2.476       .  S
Cd784       O786   2.467       .  S
C787        C860   1.477       .  S
C787        O791   1.266       .  A
C792        N793   1.360       .  A
N793        C794   1.360       .  A
C794        N795   1.364       .  A
C796        N797   1.359       .  A
C796        C837   1.469       .  S
O798        C801   1.270       .  A
O798       Cd803   2.515       .  S
C799        O808   1.262       .  A
O800        C806   1.272       .  A
C801        C834   1.469       .  S
C801        O809   1.262       .  A
C802        C883   1.482       .  S
C802        O807   1.267       .  A
Cd803       O810   2.414       .  S
Cd803       O809   2.427       .  S
Cd803       O804   2.497       .  S
Cd803       O805   2.468       .  S
C806        C863   1.478       .  S
C811        N812   1.355       .  A
C811        N816   1.359       .  A
C811        C818   1.469       .  S
N812        C813   1.359       .  A
C813        N814   1.361       .  A
N814        C815   1.364       .  A
C815        N816   1.359       .  A
C815        C832   1.477       .  S
O817       Cd822   2.513       .  S
C818        O827   1.262       .  A
C818        O823   1.269       .  A
O819        C825   1.266       .  A
O819       Cd822   2.480       .  S
C820        O828   1.262       .  A
C821        C850   1.478       .  S
C821        O826   1.272       .  A
Cd822       O829   2.472       .  S
Cd822       O827   2.442       .  S
Cd822       O823   2.497       .  S
Cd822       O824   2.415       .  S
C825        C913   1.483       .  S
C825        O829   1.265       .  A
C830        N831   1.359       .  A
C830        N835   1.355       .  A
C830        C839   1.470       .  S
N831        C832   1.360       .  A
C832        N833   1.364       .  A
N833        C834   1.361       .  A
C834        N835   1.359       .  A
O836        C839   1.269       .  A
O836       Cd841   2.499       .  S
C837        O846   1.262       .  A
C837        O842   1.270       .  A
O838        C844   1.267       .  A
O838       Cd841   2.481       .  S
C839        O847   1.262       .  A
C840        C853   1.478       .  S
C840        O845   1.272       .  A
C840        O843   1.266       .  A
Cd841       O848   2.467       .  S
Cd841       O847   2.444       .  S
Cd841       O846   2.428       .  S
Cd841       O842   2.516       .  S
Cd841       O845   2.464       .  S
Cd841       O843   2.413       .  S
C844        C900   1.482       .  S
C844        O848   1.264       .  A
C849        C850   1.407       .  A
C849        C854   1.396       .  A
C850        C851   1.406       .  A
C851        C852   1.396       .  A
C851        F858   1.357       .  S
C852        C853   1.407       .  A
C852        H857   1.083       .  S
C853        C854   1.406       .  A
C854        F855   1.357       .  S
C859        C860   1.407       .  A
C859        C864   1.396       .  A
C859        H866   1.083       .  S
C860        C861   1.406       .  A
C861        C862   1.396       .  A
C861        F868   1.357       .  S
C862        C863   1.407       .  A
C862        H867   1.083       .  S
C863        C864   1.405       .  A
C864        F865   1.357       .  S
C869        C870   1.406       .  A
C869        C874   1.399       .  A
C869        H876   1.083       .  S
C870        C871   1.407       .  A
C872        H877   1.083       .  S
C873        C874   1.407       .  A
C874        F875   1.357       .  S
C879        C880   1.406       .  A
C879        C884   1.399       .  A
C879        H886   1.083       .  S
C880        C881   1.407       .  A
C882        H887   1.083       .  S
C883        C884   1.407       .  A
C884        F885   1.357       .  S
C889        C890   1.403       .  A
C889        C894   1.397       .  A
C889        H896   1.083       .  S
C890        C891   1.410       .  A
C891        C892   1.395   1_455  A
C892        C893   1.402   1_655  A
C893        C894   1.410       .  A
C894        F895   1.357       .  S
C899        C900   1.404       .  A
C899        C904   1.400       .  A
C899        H906   1.083       .  S
C900        C901   1.409       .  A
C901        C902   1.399       .  A
C901        F908   1.357       .  S
C902        C903   1.404       .  A
C902        H907   1.083       .  S
C903        C904   1.409       .  A
C904        F905   1.357       .  S
C909        C910   1.406       .  A
C909        C914   1.399       .  A
C909        H916   1.083       .  S
C910        C911   1.407       .  A
C911        C912   1.400       .  A
C911        F918   1.357       .  S
C912        C913   1.406       .  A
C912        H917   1.083       .  S
C913        C914   1.407       .  A
C914        F915   1.357       .  S
C919        C920   1.402   1_655  A
C919        C924   1.396   1_655  A
C920        C921   1.410       .  A
C921        C922   1.397       .  A
C921        F928   1.357       .  S
C922        C923   1.403       .  A
C922        H927   1.083       .  S
C923        C924   1.410       .  A
C924        F925   1.357   1_455  S
