geometry optimzed in LAMMPS
_audit_creation_date              2020-12-01 
_audit_creation_method            'lammps2cif' 
_symmetry_space_group_name_H-M    'P1' 
_symmetry_Int_Tables_number       1 
_symmetry_cell_setting            triclinic 
loop_ 
_symmetry_equiv_pos_as_xyz 
  x,y,z 
_cell_length_a                    22.93926231 
_cell_length_b                    30.10477369453444 
_cell_length_c                    29.61638688067437 
_cell_angle_alpha                 89.99534031648909 
_cell_angle_beta                  89.99627087040994 
_cell_angle_gamma                 90.00099444752712 
loop_ 
_atom_site_label 
_atom_site_type_symbol 
_atom_site_fract_x 
_atom_site_fract_y 
_atom_site_fract_z 
_atom_site_charge 
O1          O  0.44249177  0.04895279  0.02792665    -0.71200
O2          O  0.56089902  0.01586981  0.27853806    -0.71400
O3          O  0.44029389  0.01593311  0.27816360    -0.71300
O4          O  0.55792995  0.04885091  0.02833255    -0.71300
O5          O  0.55848522  0.48317823  0.05860852    -0.71300
O6          O  0.44157190  0.45019461  0.30802522    -0.71300
O7          O  0.55967508  0.45023588  0.30865595    -0.71200
O8          O  0.44111763  0.48319761  0.05797703    -0.71400
V9          V  0.50041154  0.03108827  0.32035696     1.35200
V10         V  0.50021403  0.46777982  0.01560044     1.35200
C11         C  0.42188520  0.02240078  0.05700679     0.78000
C12         C  0.58339166  0.47770312  0.28185654     0.78100
C13         C  0.41794667  0.47769157  0.28121952     0.78000
C14         C  0.57790459  0.02231434  0.05770361     0.77900
O15         O  0.55853932  0.20018065  0.02523333    -0.71200
O16         O  0.44162188  0.23315134  0.27464140    -0.71400
O17         O  0.55898756  0.23317381  0.27527125    -0.71300
O18         O  0.44043152  0.20022016  0.02460492    -0.71300
O19         O  0.43921268  0.26585780  0.05470421    -0.71300
O20         O  0.55761023  0.29893320  0.30530120    -0.71300
O21         O  0.44217617  0.29882685  0.30490038    -0.71200
O22         O  0.55981929  0.26592437  0.05507284    -0.71400
V23         V  0.49989340  0.21775919  0.31765430     1.35200
V24         V  0.49969682  0.28107143  0.01287889     1.35200
C25         C  0.58217014  0.22768454  0.05202526     0.78000
C26         C  0.42220595  0.27228812  0.27553363     0.78100
C27         C  0.57821416  0.27237941  0.27622706     0.78000
C28         C  0.41671370  0.22769290  0.05139314     0.77900
C29         C  0.13706781  0.03606811  0.25714542     0.03700
C30         C  0.16078914  0.07694919  0.26947326    -0.12500
C31         C  0.19863903  0.09949653  0.24088653     0.01200
C32         C  0.23134250  0.07367142  0.21094508    -0.11000
C33         C  0.21355395  0.02954451  0.19893078     0.03700
C34         C  0.16427956  0.01165612  0.22213858    -0.10400
H35         H  0.14380284  0.09437935  0.29863786     0.09300
H36         H  0.27016823  0.08872064  0.19746887     0.06800
H37         H  0.14830042  0.47884065  0.21378702     0.06700
C38         C  0.12524031  0.21189448  0.24642290     0.03700
C39         C  0.13638148  0.16666857  0.24768819    -0.12500
C40         C  0.19061055  0.14904484  0.23585603     0.01200
C41         C  0.23071128  0.17830747  0.21552791    -0.11000
C42         C  0.21228295  0.22138577  0.20026906     0.03700
C43         C  0.16146142  0.23932839  0.22036979    -0.10400
H44         H  0.10180494  0.14536729  0.25972128     0.09300
H45         H  0.27395899  0.16620367  0.20795006     0.06800
H46         H  0.15052645  0.27403417  0.21596558     0.06700
C47         C  0.36437505  0.46396244  0.25639065     0.03700
C48         C  0.34098416  0.42291235  0.26853497    -0.12500
C49         C  0.30273984  0.40053627  0.24016620     0.01200
C50         C  0.26963110  0.42649622  0.21065762    -0.11000
C51         C  0.28731112  0.47064582  0.19862932     0.03700
C52         C  0.33678458  0.48850220  0.22163396    -0.10400
H53         H  0.35831370  0.40527085  0.29744668     0.09300
H54         H  0.23054184  0.41152427  0.19756671     0.06800
H55         H  0.35255709  0.02140083  0.21337704     0.06700
C56         C  0.37560110  0.28805857  0.24536159     0.03700
C57         C  0.36495800  0.33333616  0.24613068    -0.12500
C58         C  0.31053547  0.35100691  0.23496813     0.01200
C59         C  0.26988470  0.32173729  0.21531351    -0.11000
C60         C  0.28791317  0.27857578  0.19999915     0.03700
C61         C  0.33887581  0.26055805  0.21981957    -0.10400
H62         H  0.39991327  0.35458581  0.25762229     0.09300
H63         H  0.22652148  0.33389108  0.20821497     0.06800
H64         H  0.34948250  0.22576628  0.21565251     0.06700
C65         C  0.12453333  0.46205074  0.08784198     0.03700
C66         C  0.16124028  0.48954953  0.11340096    -0.12500
C67         C  0.21220449  0.47153817  0.13322400     0.01200
C68         C  0.23025080  0.42838260  0.11790306    -0.11000
C69         C  0.18961853  0.39911136  0.09822734     0.03700
C70         C  0.13519792  0.41677610  0.08705054    -0.10400
H71         H  0.15061749  0.02433621  0.11757965     0.09300
H72         H  0.27361458  0.41623441  0.12500653     0.06800
H73         H  0.10025766  0.39552317  0.07554133     0.06700
C74         C  0.13577998  0.28616345  0.07681231     0.03700
C75         C  0.15919406  0.32720167  0.06465301    -0.12500
C76         C  0.19742590  0.34958279  0.09302897     0.01200
C77         C  0.23051159  0.32362708  0.12255729    -0.11000
C78         C  0.21281302  0.27948332  0.13459318     0.03700
C79         C  0.16334443  0.26163102  0.11158372    -0.10400
H80         H  0.14187782  0.34483575  0.03573128     0.09300
H81         H  0.26959836  0.33859709  0.13565308     0.06800
H82         H  0.14755479  0.22873847  0.11984874     0.06700
C83         C  0.24987226  0.25000020  0.16756538    -0.01900
C84         C  0.37483069  0.03823830  0.08677310     0.03700
C85         C  0.33863000  0.01080697  0.11284567    -0.12500
C86         C  0.28780871  0.02874410  0.13295160     0.01200
C87         C  0.26936245  0.07181676  0.11768692    -0.11000
C88         C  0.30944294  0.10108028  0.09733508     0.03700
C89         C  0.36366686  0.08346054  0.08548432    -0.10400
H90         H  0.34958246  0.47610600  0.11726240     0.09300
H91         H  0.22611424  0.08391626  0.12527254     0.06800
H92         H  0.39822870  0.10476463  0.07343171     0.06700
C93         C  0.36299268  0.21405036  0.07606163     0.03700
C94         C  0.33924694  0.17318229  0.06371664    -0.12500
C95         C  0.30140714  0.15062905  0.09230829     0.01200
C96         C  0.26872725  0.17644958  0.12226966    -0.11000
C97         C  0.28653512  0.22057014  0.13429328     0.03700
C98         C  0.33580643  0.23845433  0.11108303    -0.10400
H99         H  0.35621838  0.15576212  0.03454100     0.09300
H100        H  0.22990208  0.16140241  0.13574940     0.06800
H101        H  0.35180285  0.27126288  0.11944370     0.06700
C102        C  0.25023357  0.00012185  0.16566027    -0.01900
O103        O  0.05762918  0.20118004  0.30530352    -0.71200
O104        O  0.93924385  0.23424856  0.05472276    -0.71400
O105        O  0.94219176  0.20126752  0.30492788    -0.71300
O106        O  0.05984920  0.23419999  0.05506630    -0.71300
O107        O  0.05857428  0.29993211  0.02518850    -0.71300
O108        O  0.94159058  0.26694597  0.27466617    -0.71300
O109        O  0.94046984  0.29988894  0.02462078    -0.71200
O110        O  0.05895788  0.26692928  0.27523789    -0.71400
V111        V  0.99972104  0.21903741  0.01288847     1.35200
V112        V  0.99989652  0.28234599  0.31764465     1.35200
C113        C  0.07820441  0.22773024  0.27620780     0.78000
C114        C  0.91675653  0.27241866  0.05141966     0.78100
C115        C  0.92218727  0.22780521  0.27557081     0.78000
C116        C  0.08220257  0.27243796  0.05199480     0.77900
O117        O  0.94152925  0.04994462  0.30804795    -0.71200
O118        O  0.05851704  0.01696730  0.05857725    -0.71400
O119        O  0.05963750  0.04989941  0.30861209    -0.71300
O120        O  0.94115203  0.01695163  0.05800898    -0.71300
O121        O  0.94247478  0.45119947  0.02795996    -0.71300
O122        O  0.06085969  0.48425404  0.27853158    -0.71300
O123        O  0.05790852  0.45128449  0.02833598    -0.71200
O124        O  0.94025291  0.48420904  0.27818869    -0.71400
V125        V  0.00021068  0.03236307  0.01559493     1.35200
V126        V  0.00038148  0.46905088  0.32036980     1.35200
C127        C  0.91789645  0.02244539  0.28125289     0.78000
C128        C  0.07791250  0.47782453  0.05768707     0.78100
C129        C  0.08335271  0.02242270  0.28182584     0.78000
C130        C  0.92190630  0.47775165  0.05705129     0.77900
C131        C  0.86430668  0.03616111  0.25644337     0.03700
C132        C  0.83675759  0.01163704  0.22166179    -0.12500
C133        C  0.78728360  0.02948680  0.19865479     0.01200
C134        C  0.76957187  0.07362316  0.21069713    -0.11000
C135        C  0.80263882  0.09957068  0.24024201     0.03700
C136        C  0.84086275  0.07718161  0.26862142    -0.10400
H137        H  0.85256291  0.47875384  0.21338736     0.09300
H138        H  0.73048875  0.08859373  0.19759226     0.06800
H139        H  0.85816151  0.09480298  0.29755437     0.06700
C140        C  0.87555528  0.21203297  0.24542684     0.03700
C141        C  0.83886329  0.23953328  0.21985263    -0.12500
C142        C  0.78789691  0.22152833  0.20002895     0.01200
C143        C  0.76983788  0.17837317  0.21535099    -0.11000
C144        C  0.81045378  0.14910007  0.23504723     0.03700
C145        C  0.86487078  0.16676102  0.24623995    -0.10400
H146        H  0.84949864  0.27431800  0.21566357     0.09300
H147        H  0.72647741  0.16622682  0.20823476     0.06800
H148        H  0.89979916  0.14550531  0.25776762     0.06700
C149        C  0.87487949  0.46191479  0.08684528     0.03700
C150        C  0.83864484  0.48934756  0.11288138    -0.12500
C151        C  0.78782323  0.47139873  0.13297971     0.01200
C152        C  0.76940433  0.42831880  0.11772224    -0.11000
C153        C  0.80952009  0.39905827  0.09741332     0.03700
C154        C  0.86375432  0.41668631  0.08559954    -0.10400
H155        H  0.84957075  0.02405634  0.11727583     0.09300
H156        H  0.72615258  0.41621196  0.12528948     0.06800
H157        H  0.89834264  0.39538785  0.07358676     0.06700
C158        C  0.86305402  0.28607461  0.07610853     0.03700
C159        C  0.83583064  0.26165579  0.11110957    -0.12500
C160        C  0.78656249  0.27954533  0.13432026     0.00800
C161        C  0.76878316  0.32367630  0.12230833    -0.11000
C162        C  0.80150035  0.34950988  0.09237929     0.03700
C163        C  0.83935958  0.32697116  0.06379626    -0.10400
H164        H  0.85179519  0.22883375  0.11945407     0.09300
H165        H  0.72995281  0.33872324  0.13577692     0.06800
H166        H  0.85636296  0.34441328  0.03464201     0.06700
C167        C  0.62452151  0.03808343  0.08786395     0.03700
C168        C  0.66123063  0.01058077  0.11342181    -0.12500
C169        C  0.71219720  0.02859066  0.13324169     0.01200
C170        C  0.73024042  0.07175074  0.11792511    -0.11000
C171        C  0.68960784  0.10102303  0.09824924     0.03700
C172        C  0.63518754  0.08335790  0.08707121    -0.10400
H173        H  0.65060996  0.47579200  0.11760012     0.09300
H174        H  0.77360156  0.08390158  0.12503578     0.06800
H175        H  0.60024624  0.10461116  0.07555978     0.06700
C176        C  0.63575593  0.21396749  0.07684442     0.03700
C177        C  0.66332827  0.23849871  0.11161242    -0.12500
C178        C  0.71280686  0.22064576  0.13461515     0.01200
C179        C  0.73050256  0.17650414  0.12257994    -0.11000
C180        C  0.69741464  0.15055259  0.09305312     0.03700
C181        C  0.65918025  0.17293684  0.06467980    -0.10400
H182        H  0.64753741  0.27138749  0.11987983     0.09300
H183        H  0.76958731  0.16153214  0.13568048     0.06800
H184        H  0.64186934  0.15530779  0.03575569     0.06700
C185        C  0.63709887  0.46404949  0.25717885     0.03700
C186        C  0.66081433  0.42316408  0.26950590    -0.12500
C187        C  0.69866159  0.40061919  0.24091707     0.01200
C188        C  0.73135643  0.42644811  0.21096851    -0.11000
C189        C  0.71356026  0.47057394  0.19894907     0.03700
C190        C  0.66429729  0.48846036  0.22216370    -0.10400
H191        H  0.64382564  0.40573159  0.29867108     0.09300
H192        H  0.77018420  0.41140289  0.19749618     0.06800
H193        H  0.64831749  0.02127609  0.21381158     0.06700
C194        C  0.62525913  0.28821990  0.24645161     0.03700
C195        C  0.66147393  0.26079095  0.22039513    -0.12500
C196        C  0.71229487  0.27873481  0.20029166     0.01200
C197        C  0.73073050  0.32180949  0.21555451    -0.11000
C198        C  0.69063443  0.35107020  0.23588743     0.03700
C199        C  0.63640628  0.33344514  0.24772160    -0.10400
H200        H  0.65053125  0.22608639  0.21598780     0.09300
H201        H  0.77398119  0.33391223  0.20797962     0.06800
H202        H  0.60183297  0.35474596  0.25975564     0.06700
C203        C  0.74987667  0.25011805  0.16758806    -0.01900
C204        C  0.75022952  0.50000818  0.16567937    -0.01900
O205        O  0.44249177  0.04895278  0.36125996    -0.71200
O206        O  0.56089905  0.01586976  0.61187142    -0.71400
O207        O  0.44029397  0.01593298  0.61149694    -0.71300
O208        O  0.55792994  0.04885080  0.36166591    -0.71300
O209        O  0.55848527  0.48317814  0.39194186    -0.71300
O210        O  0.44157201  0.45019456  0.64135856    -0.71300
O211        O  0.55967513  0.45023592  0.64198934    -0.71200
O212        O  0.44111767  0.48319758  0.39131032    -0.71400
V213        V  0.50041161  0.03108819  0.65369032     1.35200
V214        V  0.50021410  0.46777983  0.34893375     1.35200
C215        C  0.42188512  0.02240078  0.39034007     0.78000
C216        C  0.58339170  0.47770314  0.61518986     0.78100
C217        C  0.41794676  0.47769153  0.61455288     0.78000
C218        C  0.57790451  0.02231425  0.39103700     0.77900
O219        O  0.55853941  0.20018064  0.35856652    -0.71200
O220        O  0.44162188  0.23315136  0.60797478    -0.71400
O221        O  0.55898770  0.23317384  0.60860465    -0.71300
O222        O  0.44043171  0.20022014  0.35793829    -0.71300
O223        O  0.43921263  0.26585778  0.38803753    -0.71300
O224        O  0.55761048  0.29893325  0.63863461    -0.71300
O225        O  0.44217626  0.29882691  0.63823370    -0.71200
O226        O  0.55981916  0.26592428  0.38840619    -0.71400
V227        V  0.49989343  0.21775920  0.65098765     1.35200
V228        V  0.49969675  0.28107140  0.34621223     1.35200
C229        C  0.58217008  0.22768447  0.38535859     0.78000
C230        C  0.42220597  0.27228812  0.60886698     0.78100
C231        C  0.57821435  0.27237942  0.60956046     0.78000
C232        C  0.41671378  0.22769288  0.38472649     0.77900
C233        C  0.13706778  0.03606805  0.59047878     0.03700
C234        C  0.16078899  0.07694920  0.60280662    -0.12500
C235        C  0.19863891  0.09949657  0.57421985     0.01200
C236        C  0.23134233  0.07367143  0.54427849    -0.11000
C237        C  0.21355386  0.02954455  0.53226413     0.03700
C238        C  0.16427948  0.01165602  0.55547193    -0.10400
H239        H  0.14380276  0.09437925  0.63197102     0.09300
H240        H  0.27016851  0.08872082  0.53080207     0.06800
H241        H  0.14830037  0.47884070  0.54712040     0.06700
C242        C  0.12524023  0.21189450  0.57975625     0.03700
C243        C  0.13638149  0.16666868  0.58102146    -0.12500
C244        C  0.19061040  0.14904487  0.56918927     0.01200
C245        C  0.23071117  0.17830757  0.54886126    -0.11000
C246        C  0.21228287  0.22138585  0.53360240     0.03700
C247        C  0.16146131  0.23932853  0.55370315    -0.10400
H248        H  0.10180442  0.14536700  0.59305479     0.09300
H249        H  0.27395907  0.16620374  0.54128344     0.06800
H250        H  0.15052639  0.27403397  0.54929904     0.06700
C251        C  0.36437503  0.46396241  0.58972406     0.03700
C252        C  0.34098412  0.42291235  0.60186830    -0.12500
C253        C  0.30273979  0.40053626  0.57349960     0.01200
C254        C  0.26963105  0.42649620  0.54399099    -0.11000
C255        C  0.28731107  0.47064578  0.53196271     0.03700
C256        C  0.33678449  0.48850223  0.55496740    -0.10400
H257        H  0.35831391  0.40527061  0.63078022     0.09300
H258        H  0.23054179  0.41152424  0.53090007     0.06800
H259        H  0.35255707  0.02140079  0.54671047     0.06700
C260        C  0.37560107  0.28805858  0.57869492     0.03700
C261        C  0.36495816  0.33333620  0.57946384    -0.12500
C262        C  0.31053551  0.35100693  0.56830144     0.01200
C263        C  0.26988452  0.32173741  0.54864683    -0.11000
C264        C  0.28791307  0.27857587  0.53333253     0.03700
C265        C  0.33887570  0.26055791  0.55315295    -0.10400
H266        H  0.39991318  0.35458565  0.59095521     0.09300
H267        H  0.22652226  0.33389100  0.54154848     0.06800
H268        H  0.34948201  0.22576716  0.54898601     0.06700
C269        C  0.12453336  0.46205082  0.42117532     0.03700
C270        C  0.16124039  0.48954978  0.44673426    -0.12500
C271        C  0.21220451  0.47153811  0.46655739     0.01200
C272        C  0.23025061  0.42838260  0.45123639    -0.11000
C273        C  0.18961849  0.39911138  0.43156059     0.03700
C274        C  0.13519796  0.41677628  0.42038394    -0.10400
H275        H  0.15061740  0.02433657  0.45091295     0.09300
H276        H  0.27361520  0.41623403  0.45834006     0.06800
H277        H  0.10025697  0.39552289  0.40887461     0.06700
C278        C  0.13577994  0.28616356  0.41014559     0.03700
C279        C  0.15919397  0.32720175  0.39798636    -0.12500
C280        C  0.19742579  0.34958282  0.42636231     0.01200
C281        C  0.23051146  0.32362704  0.45589062    -0.11000
C282        C  0.21281292  0.27948333  0.46792649     0.03700
C283        C  0.16334425  0.26163089  0.44491704    -0.10400
H284        H  0.14187769  0.34483595  0.36906462     0.09300
H285        H  0.26959830  0.33859701  0.46898640     0.06800
H286        H  0.14755494  0.22873929  0.45318180     0.06700
C287        C  0.24987222  0.25000027  0.50089871    -0.01900
C288        C  0.37483063  0.03823827  0.42010649     0.03700
C289        C  0.33862983  0.01080716  0.44617905    -0.12500
C290        C  0.28780865  0.02874415  0.46628502     0.01200
C291        C  0.26936217  0.07181685  0.45102029    -0.11000
C292        C  0.30944290  0.10108029  0.43066849     0.03700
C293        C  0.36366681  0.08346053  0.41881785    -0.10400
H294        H  0.34958219  0.47610667  0.45059561     0.09300
H295        H  0.22611485  0.08391610  0.45860572     0.06800
H296        H  0.39822900  0.10476479  0.40676522     0.06700
C297        C  0.36299283  0.21405030  0.40939500     0.03700
C298        C  0.33924702  0.17318230  0.39705005    -0.12500
C299        C  0.30140724  0.15062908  0.42564171     0.01200
C300        C  0.26872725  0.17644968  0.45560306    -0.11000
C301        C  0.28653525  0.22057024  0.46762663     0.03700
C302        C  0.33580670  0.23845451  0.44441644    -0.10400
H303        H  0.35621852  0.15576199  0.36787425     0.09300
H304        H  0.22990270  0.16140282  0.46908248     0.06800
H305        H  0.35180276  0.27126218  0.45277684     0.06700
C306        C  0.25023351  0.00012193  0.49899366    -0.01900
O307        O  0.05762909  0.20117994  0.63863687    -0.71200
O308        O  0.93924397  0.23424875  0.38805606    -0.71400
O309        O  0.94219168  0.20126745  0.63826124    -0.71300
O310        O  0.05984910  0.23420021  0.38839957    -0.71300
O311        O  0.05857428  0.29993232  0.35852177    -0.71300
O312        O  0.94159079  0.26694587  0.60799946    -0.71300
O313        O  0.94046976  0.29988911  0.35795407    -0.71200
O314        O  0.05895788  0.26692920  0.60857127    -0.71400
V315        V  0.99972104  0.21903762  0.34622172     1.35200
V316        V  0.99989660  0.28234589  0.65097801     1.35200
C317        C  0.07820433  0.22773018  0.60954116     0.78000
C318        C  0.91675652  0.27241878  0.38475295     0.78100
C319        C  0.92218735  0.22780517  0.60890412     0.78000
C320        C  0.08220251  0.27243814  0.38532809     0.77900
O321        O  0.94152917  0.04994459  0.64138135    -0.71200
O322        O  0.05851698  0.01696722  0.39191061    -0.71400
O323        O  0.05963754  0.04989930  0.64194551    -0.71300
O324        O  0.94115191  0.01695155  0.39134212    -0.71300
O325        O  0.94247483  0.45119954  0.36129327    -0.71300
O326        O  0.06085963  0.48425418  0.61186493    -0.71300
O327        O  0.05790852  0.45128445  0.36166935    -0.71200
O328        O  0.94025282  0.48420905  0.61152203    -0.71400
V329        V  0.00021063  0.03236298  0.34892822     1.35200
V330        V  0.00038141  0.46905094  0.65370314     1.35200
C331        C  0.91789639  0.02244535  0.61458624     0.78000
C332        C  0.07791251  0.47782458  0.39102041     0.78100
C333        C  0.08335268  0.02242260  0.61515922     0.78000
C334        C  0.92190630  0.47775173  0.39038457     0.77900
C335        C  0.86430666  0.03616113  0.58977671     0.03700
C336        C  0.83675763  0.01163687  0.55499510    -0.12500
C337        C  0.78728362  0.02948678  0.53198809     0.01200
C338        C  0.76957182  0.07362309  0.54403049    -0.11000
C339        C  0.80263876  0.09957068  0.57357537     0.03700
C340        C  0.84086265  0.07718152  0.60195464    -0.10400
H341        H  0.85256276  0.47875416  0.54672068     0.09300
H342        H  0.73048855  0.08859365  0.53092566     0.06800
H343        H  0.85816185  0.09480330  0.63088825     0.06700
C344        C  0.87555530  0.21203295  0.57876018     0.03700
C345        C  0.83886341  0.23953339  0.55318592    -0.12500
C346        C  0.78789693  0.22152840  0.53336226     0.01200
C347        C  0.76983814  0.17837328  0.54868423    -0.11000
C348        C  0.81045368  0.14910007  0.56838056     0.03700
C349        C  0.86487060  0.16676111  0.57957330    -0.10400
H350        H  0.84949874  0.27431775  0.54899689     0.09300
H351        H  0.72647624  0.16622654  0.54156765     0.06800
H352        H  0.89979961  0.14550488  0.59110121     0.06700
C353        C  0.87487942  0.46191483  0.42017849     0.03700
C354        C  0.83864485  0.48934756  0.44621470    -0.12500
C355        C  0.78782328  0.47139870  0.46631308     0.01200
C356        C  0.76940434  0.42831885  0.45105556    -0.11000
C357        C  0.80952004  0.39905830  0.43074664     0.03700
C358        C  0.86375423  0.41668635  0.41893281    -0.10400
H359        H  0.84957057  0.02405517  0.45060900     0.09300
H360        H  0.72615225  0.41621201  0.45862280     0.06800
H361        H  0.89834271  0.39538772  0.40691997     0.06700
C362        C  0.86305390  0.28607466  0.40944175     0.03700
C363        C  0.83583073  0.26165580  0.44444293    -0.12500
C364        C  0.78656250  0.27954542  0.46765359     0.00800
C365        C  0.76878309  0.32367639  0.45564168    -0.11000
C366        C  0.80150026  0.34950992  0.42571257     0.03700
C367        C  0.83935942  0.32697121  0.39712938    -0.10400
H368        H  0.85179506  0.22883445  0.45278729     0.09300
H369        H  0.72995314  0.33872323  0.46911012     0.06800
H370        H  0.85636244  0.34441303  0.36797564     0.06700
C371        C  0.62452147  0.03808336  0.42119736     0.03700
C372        C  0.66123065  0.01058072  0.44675519    -0.12500
C373        C  0.71219727  0.02859063  0.46657499     0.01200
C374        C  0.73024044  0.07175076  0.45125848    -0.11000
C375        C  0.68960788  0.10102300  0.43158254     0.03700
C376        C  0.63518750  0.08335787  0.42040455    -0.10400
H377        H  0.65060994  0.47579211  0.45093345     0.09300
H378        H  0.77360140  0.08390162  0.45836919     0.06800
H379        H  0.60024643  0.10461097  0.40889314     0.06700
C380        C  0.63575585  0.21396744  0.41017779     0.03700
C381        C  0.66332841  0.23849854  0.44494571    -0.12500
C382        C  0.71280691  0.22064574  0.46794847     0.01200
C383        C  0.73050270  0.17650408  0.45591320    -0.11000
C384        C  0.69741469  0.15055256  0.42638634     0.03700
C385        C  0.65918026  0.17293684  0.39801317    -0.10400
H386        H  0.64753728  0.27138821  0.45321330     0.09300
H387        H  0.76958720  0.16153221  0.46901356     0.06800
H388        H  0.64186907  0.15530761  0.36908874     0.06700
C389        C  0.63709902  0.46404951  0.59051227     0.03700
C390        C  0.66081455  0.42316425  0.60283922    -0.12500
C391        C  0.69866164  0.40061919  0.57425044     0.01200
C392        C  0.73135625  0.42644815  0.54430189    -0.11000
C393        C  0.71356044  0.47057390  0.53228244     0.03700
C394        C  0.66429746  0.48846058  0.55549711    -0.10400
H395        H  0.64382536  0.40573128  0.63200515     0.09300
H396        H  0.77018528  0.41140229  0.53082894     0.06800
H397        H  0.64831715  0.02127662  0.54714476     0.06700
C398        C  0.62525916  0.28821998  0.57978494     0.03700
C399        C  0.66147384  0.26079085  0.55372841    -0.12500
C400        C  0.71229481  0.27873491  0.53362491     0.01200
C401        C  0.73073032  0.32180950  0.54888784    -0.11000
C402        C  0.69063445  0.35107024  0.56922081     0.03700
C403        C  0.63640629  0.33344519  0.58105495    -0.10400
H404        H  0.65053152  0.22608728  0.54932128     0.09300
H405        H  0.77398183  0.33391246  0.54131282     0.06800
H406        H  0.60183301  0.35474607  0.59308903     0.06700
C407        C  0.74987669  0.25011808  0.50092138    -0.01900
C408        C  0.75022954  0.50000817  0.49901268    -0.01900
O409        O  0.44249190  0.04895269  0.69459333    -0.71200
O410        O  0.56089897  0.01586991  0.94520476    -0.71400
O411        O  0.44029383  0.01593314  0.94483031    -0.71300
O412        O  0.55792997  0.04885079  0.69499924    -0.71300
O413        O  0.55848515  0.48317829  0.72527530    -0.71300
O414        O  0.44157185  0.45019450  0.97469192    -0.71300
O415        O  0.55967499  0.45023582  0.97532265    -0.71200
O416        O  0.44111769  0.48319763  0.72464360    -0.71400
V417        V  0.50041150  0.03108835  0.98702365     1.35200
V418        V  0.50021414  0.46777991  0.68226710     1.35200
C419        C  0.42188526  0.02240069  0.72367342     0.78000
C420        C  0.58339161  0.47770307  0.94852322     0.78100
C421        C  0.41794665  0.47769151  0.94788623     0.78000
C422        C  0.57790461  0.02231426  0.72437031     0.77900
O423        O  0.55853930  0.20018065  0.69189997    -0.71200
O424        O  0.44162186  0.23315130  0.94130805    -0.71400
O425        O  0.55898763  0.23317387  0.94193804    -0.71300
O426        O  0.44043160  0.20022013  0.69127153    -0.71300
O427        O  0.43921277  0.26585775  0.72137088    -0.71300
O428        O  0.55761036  0.29893330  0.97196793    -0.71300
O429        O  0.44217629  0.29882685  0.97156698    -0.71200
O430        O  0.55981934  0.26592438  0.72173949    -0.71400
V431        V  0.49989337  0.21775917  0.98432100     1.35200
V432        V  0.49969689  0.28107146  0.67954557     1.35200
C433        C  0.58217007  0.22768451  0.71869197     0.78000
C434        C  0.42220599  0.27228808  0.94220027     0.78100
C435        C  0.57821425  0.27237948  0.94289380     0.78000
C436        C  0.41671382  0.22769287  0.71805981     0.77900
C437        C  0.13706776  0.03606818  0.92381197     0.03700
C438        C  0.16078924  0.07694917  0.93613996    -0.12500
C439        C  0.19863917  0.09949653  0.90755326     0.01200
C440        C  0.23134272  0.07367143  0.87761181    -0.11000
C441        C  0.21355410  0.02954451  0.86559753     0.03700
C442        C  0.16427961  0.01165596  0.88880525    -0.10400
H443        H  0.14380307  0.09437922  0.96530444     0.09300
H444        H  0.27016814  0.08872053  0.86413572     0.06800
H445        H  0.14830051  0.47884079  0.88045364     0.06700
C446        C  0.12524033  0.21189446  0.91308960     0.03700
C447        C  0.13638146  0.16666853  0.91435487    -0.12500
C448        C  0.19061057  0.14904483  0.90252263     0.01200
C449        C  0.23071123  0.17830753  0.88219461    -0.11000
C450        C  0.21228297  0.22138579  0.86693575     0.03700
C451        C  0.16146136  0.23932845  0.88703649    -0.10400
H452        H  0.10180519  0.14536740  0.92638791     0.09300
H453        H  0.27395945  0.16620363  0.87461673     0.06800
H454        H  0.15052643  0.27403384  0.88263231     0.06700
C455        C  0.36437497  0.46396248  0.92305739     0.03700
C456        C  0.34098412  0.42291239  0.93520159    -0.12500
C457        C  0.30273979  0.40053628  0.90683297     0.01200
C458        C  0.26963094  0.42649620  0.87732430    -0.11000
C459        C  0.28731113  0.47064581  0.86529600     0.03700
C460        C  0.33678455  0.48850226  0.88830063    -0.10400
H461        H  0.35831397  0.40527063  0.96411354     0.09300
H462        H  0.23054234  0.41152447  0.86423358     0.06800
H463        H  0.35255662  0.02139986  0.88004396     0.06700
C464        C  0.37560106  0.28805855  0.91202830     0.03700
C465        C  0.36495806  0.33333612  0.91279724    -0.12500
C466        C  0.31053547  0.35100691  0.90163483     0.01200
C467        C  0.26988477  0.32173727  0.88198021    -0.11000
C468        C  0.28791313  0.27857579  0.86666586     0.03700
C469        C  0.33887584  0.26055787  0.88648626    -0.10400
H470        H  0.39991349  0.35458587  0.92428880     0.09300
H471        H  0.22652119  0.33389121  0.87488160     0.06800
H472        H  0.34948234  0.22576705  0.88231921     0.06700
C473        C  0.12453336  0.46205074  0.75450865     0.03700
C474        C  0.16124040  0.48954972  0.78006767    -0.12500
C475        C  0.21220462  0.47153811  0.79989065     0.01200
C476        C  0.23025098  0.42838256  0.78456963    -0.11000
C477        C  0.18961857  0.39911134  0.76489386     0.03700
C478        C  0.13519815  0.41677631  0.75371731    -0.10400
H479        H  0.15061756  0.02433657  0.78424639     0.09300
H480        H  0.27361445  0.41623432  0.79167303     0.06800
H481        H  0.10025638  0.39552240  0.74220764     0.06700
C482        C  0.13577988  0.28616352  0.74347892     0.03700
C483        C  0.15919397  0.32720165  0.73131975    -0.12500
C484        C  0.19742595  0.34958279  0.75969550     0.01200
C485        C  0.23051134  0.32362700  0.78922394    -0.11000
C486        C  0.21281285  0.27948335  0.80125989     0.03700
C487        C  0.16334419  0.26163083  0.77825042    -0.10400
H488        H  0.14187728  0.34483622  0.70239742     0.09300
H489        H  0.26959869  0.33859717  0.80231994     0.06800
H490        H  0.14755514  0.22873951  0.78651507     0.06700
C491        C  0.24987223  0.25000022  0.83423205    -0.01900
C492        C  0.37483071  0.03823823  0.75343975     0.03700
C493        C  0.33863013  0.01080697  0.77951243    -0.12500
C494        C  0.28780883  0.02874411  0.79961839     0.01200
C495        C  0.26936259  0.07181673  0.78435364    -0.11000
C496        C  0.30944299  0.10108027  0.76400183     0.03700
C497        C  0.36366700  0.08346057  0.75215094    -0.10400
H498        H  0.34958237  0.47610586  0.78392910     0.09300
H499        H  0.22611398  0.08391630  0.79193934     0.06800
H500        H  0.39822817  0.10476422  0.74009851     0.06700
C501        C  0.36299282  0.21405035  0.74272831     0.03700
C502        C  0.33924692  0.17318237  0.73038338    -0.12500
C503        C  0.30140730  0.15062907  0.75897504     0.01200
C504        C  0.26872749  0.17644965  0.78893639    -0.11000
C505        C  0.28653519  0.22057024  0.80095993     0.03700
C506        C  0.33580660  0.23845441  0.77774972    -0.10400
H507        H  0.35621851  0.15576195  0.70120725     0.09300
H508        H  0.22990200  0.16140232  0.80241626     0.06800
H509        H  0.35180307  0.27126290  0.78611040     0.06700
C510        C  0.25023365  0.00012187  0.83232697    -0.01900
O511        O  0.05762928  0.20117996  0.97197028    -0.71200
O512        O  0.93924387  0.23424865  0.72138941    -0.71400
O513        O  0.94219168  0.20126737  0.97159464    -0.71300
O514        O  0.05984902  0.23420012  0.72173291    -0.71300
O515        O  0.05857431  0.29993222  0.69185511    -0.71300
O516        O  0.94159072  0.26694580  0.94133286    -0.71300
O517        O  0.94046991  0.29988904  0.69128747    -0.71200
O518        O  0.05895777  0.26692915  0.94190449    -0.71400
V519        V  0.99972096  0.21903751  0.67955508     1.35200
V520        V  0.99989656  0.28234579  0.98431136     1.35200
C521        C  0.07820437  0.22773015  0.94287448     0.78000
C522        C  0.91675651  0.27241873  0.71808629     0.78100
C523        C  0.92218729  0.22780513  0.94223754     0.78000
C524        C  0.08220250  0.27243802  0.71866142     0.77900
O525        O  0.94152933  0.04994474  0.97471461    -0.71200
O526        O  0.05851687  0.01696733  0.72524400    -0.71400
O527        O  0.05963764  0.04989939  0.97527882    -0.71300
O528        O  0.94115187  0.01695148  0.72467547    -0.71300
O529        O  0.94247474  0.45119954  0.69462656    -0.71300
O530        O  0.06085951  0.48425412  0.94519812    -0.71300
O531        O  0.05790845  0.45128444  0.69500266    -0.71200
O532        O  0.94025285  0.48420892  0.94485536    -0.71400
V533        V  0.00021056  0.03236295  0.68226158     1.35200
V534        V  0.00038144  0.46905087  0.98703646     1.35200
C535        C  0.91789650  0.02244549  0.94791953     0.78000
C536        C  0.07791250  0.47782456  0.72435373     0.78100
C537        C  0.08335263  0.02242273  0.94849241     0.78000
C538        C  0.92190615  0.47775173  0.72371784     0.77900
C539        C  0.86430665  0.03616114  0.92311008     0.03700
C540        C  0.83675754  0.01163710  0.88832846    -0.12500
C541        C  0.78728368  0.02948689  0.86532139     0.01200
C542        C  0.76957170  0.07362323  0.87736382    -0.11000
C543        C  0.80263873  0.09957069  0.90690879     0.03700
C544        C  0.84086256  0.07718151  0.93528808    -0.10400
H545        H  0.85256272  0.47875401  0.88005406     0.09300
H546        H  0.73048902  0.08859361  0.86425919     0.06800
H547        H  0.85816177  0.09480326  0.96422165     0.06700
C548        C  0.87555524  0.21203295  0.91209361     0.03700
C549        C  0.83886339  0.23953354  0.88651931    -0.12500
C550        C  0.78789695  0.22152834  0.86669563     0.01200
C551        C  0.76983814  0.17837329  0.88201772    -0.11000
C552        C  0.81045373  0.14910007  0.90171396     0.03700
C553        C  0.86487062  0.16676112  0.91290667    -0.10400
H554        H  0.84949842  0.27431708  0.88233039     0.09300
H555        H  0.72647629  0.16622656  0.87490123     0.06800
H556        H  0.89979963  0.14550487  0.92443459     0.06700
C557        C  0.87487938  0.46191476  0.75351180     0.03700
C558        C  0.83864481  0.48934748  0.77954804    -0.12500
C559        C  0.78782329  0.47139860  0.79964644     0.01200
C560        C  0.76940432  0.42831872  0.78438891    -0.11000
C561        C  0.80952015  0.39905820  0.76408006     0.03700
C562        C  0.86375434  0.41668626  0.75226625    -0.10400
H563        H  0.84957083  0.02405589  0.78394240     0.09300
H564        H  0.72615270  0.41621197  0.79195605     0.06800
H565        H  0.89834284  0.39538764  0.74025338     0.06700
C566        C  0.86305388  0.28607460  0.74277507     0.03700
C567        C  0.83583067  0.26165600  0.77777628    -0.12500
C568        C  0.78656254  0.27954537  0.80098699     0.00800
C569        C  0.76878302  0.32367634  0.78897504    -0.11000
C570        C  0.80150024  0.34950986  0.75904591     0.03700
C571        C  0.83935933  0.32697114  0.73046274    -0.10400
H572        H  0.85179569  0.22883337  0.78612101     0.09300
H573        H  0.72995316  0.33872308  0.80244342     0.06800
H574        H  0.85636264  0.34441316  0.70130869     0.06700
C575        C  0.62452154  0.03808337  0.75453064     0.03700
C576        C  0.66123069  0.01058088  0.78008856    -0.12500
C577        C  0.71219725  0.02859066  0.79990837     0.01200
C578        C  0.73024060  0.07175082  0.78459181    -0.11000
C579        C  0.68960783  0.10102301  0.76491588     0.03700
C580        C  0.63518752  0.08335788  0.75373790    -0.10400
H581        H  0.65060995  0.47579222  0.78426680     0.09300
H582        H  0.77360076  0.08390144  0.79170235     0.06800
H583        H  0.60024628  0.10461100  0.74222654     0.06700
C584        C  0.63575582  0.21396747  0.74351116     0.03700
C585        C  0.66332829  0.23849879  0.77827910    -0.12500
C586        C  0.71280685  0.22064575  0.80128185     0.01200
C587        C  0.73050258  0.17650413  0.78924658    -0.11000
C588        C  0.69741460  0.15055259  0.75971976     0.03700
C589        C  0.65918008  0.17293681  0.73134652    -0.10400
H590        H  0.64753773  0.27138736  0.78654636     0.09300
H591        H  0.76958714  0.16153223  0.80234700     0.06800
H592        H  0.64186916  0.15530781  0.70242254     0.06700
C593        C  0.63709899  0.46404951  0.92384563     0.03700
C594        C  0.66081455  0.42316422  0.93617259    -0.12500
C595        C  0.69866175  0.40061921  0.90758388     0.01200
C596        C  0.73135668  0.42644805  0.87763522    -0.11000
C597        C  0.71356040  0.47057387  0.86561579     0.03700
C598        C  0.66429745  0.48846050  0.88883042    -0.10400
H599        H  0.64382544  0.40573141  0.96533832     0.09300
H600        H  0.77018393  0.41140291  0.86416302     0.06800
H601        H  0.64831771  0.02127615  0.88047833     0.06700
C602        C  0.62525914  0.28822000  0.91311830     0.03700
C603        C  0.66147381  0.26079083  0.88706180    -0.12500
C604        C  0.71229485  0.27873482  0.86695835     0.01200
C605        C  0.73073035  0.32180945  0.88222120    -0.11000
C606        C  0.69063455  0.35107024  0.90255416     0.03700
C607        C  0.63640637  0.33344521  0.91438833    -0.10400
H608        H  0.65053139  0.22608721  0.88265463     0.09300
H609        H  0.77398188  0.33391240  0.87464615     0.06800
H610        H  0.60183305  0.35474612  0.92642239     0.06700
C611        C  0.74987668  0.25011806  0.83425477    -0.01900
C612        C  0.75022955  0.50000810  0.83234601    -0.01900
O613        O  0.44249179  0.54895270  0.02792664    -0.71200
O614        O  0.56089903  0.51586988  0.27853810    -0.71400
O615        O  0.44029381  0.51593316  0.27816358    -0.71300
O616        O  0.55792991  0.54885082  0.02833256    -0.71300
O617        O  0.55848528  0.98317830  0.05860851    -0.71300
O618        O  0.44157189  0.95019456  0.30802519    -0.71300
O619        O  0.55967504  0.95023586  0.30865597    -0.71200
O620        O  0.44111771  0.98319768  0.05797700    -0.71400
V621        V  0.50041149  0.53108829  0.32035698     1.35200
V622        V  0.50021409  0.96777994  0.01560043     1.35200
C623        C  0.42188517  0.52240075  0.05700678     0.78000
C624        C  0.58339160  0.97770305  0.28185650     0.78100
C625        C  0.41794669  0.97769155  0.28121950     0.78000
C626        C  0.57790453  0.52231429  0.05770364     0.77900
O627        O  0.55853916  0.70018061  0.02523344    -0.71200
O628        O  0.44162175  0.73315123  0.27464149    -0.71400
O629        O  0.55898757  0.73317386  0.27527127    -0.71300
O630        O  0.44043148  0.70022018  0.02460490    -0.71300
O631        O  0.43921257  0.76585783  0.05470419    -0.71300
O632        O  0.55761027  0.79893327  0.30530119    -0.71300
O633        O  0.44217624  0.79882683  0.30490031    -0.71200
O634        O  0.55981919  0.76592433  0.05507293    -0.71400
V635        V  0.49989338  0.71775916  0.31765431     1.35200
V636        V  0.49969677  0.78107145  0.01287893     1.35200
C637        C  0.58216999  0.72768448  0.05202537     0.78000
C638        C  0.42220594  0.77228802  0.27553363     0.78100
C639        C  0.57821419  0.77237946  0.27622706     0.78000
C640        C  0.41671364  0.72769292  0.05139314     0.77900
C641        C  0.13706780  0.53606807  0.25714545     0.03700
C642        C  0.16078922  0.57694912  0.26947343    -0.12500
C643        C  0.19863906  0.59949649  0.24088661     0.01200
C644        C  0.23134252  0.57367142  0.21094511    -0.11000
C645        C  0.21355392  0.52954451  0.19893081     0.03700
C646        C  0.16427954  0.51165601  0.22213861    -0.10400
H647        H  0.14380305  0.59437914  0.29863777     0.09300
H648        H  0.27016798  0.58872055  0.19746897     0.06800
H649        H  0.14830020  0.97884029  0.21378689     0.06700
C650        C  0.12524031  0.71189443  0.24642290     0.03700
C651        C  0.13638158  0.66666860  0.24768817    -0.12500
C652        C  0.19061057  0.64904480  0.23585605     0.01200
C653        C  0.23071104  0.67830752  0.21552791    -0.11000
C654        C  0.21228294  0.72138576  0.20026905     0.03700
C655        C  0.16146140  0.73932844  0.22036982    -0.10400
H656        H  0.10180447  0.64536685  0.25972150     0.09300
H657        H  0.27396009  0.66620334  0.20794981     0.06800
H658        H  0.15052654  0.77403397  0.21596569     0.06700
C659        C  0.36437505  0.96396245  0.25639065     0.03700
C660        C  0.34098415  0.92291237  0.26853487    -0.12500
C661        C  0.30273992  0.90053625  0.24016622     0.01200
C662        C  0.26963084  0.92649612  0.21065759    -0.11000
C663        C  0.28731114  0.97064580  0.19862934     0.03700
C664        C  0.33678454  0.98850218  0.22163397    -0.10400
H665        H  0.35831399  0.90527062  0.29744695     0.09300
H666        H  0.23054302  0.91152469  0.19756729     0.06800
H667        H  0.35255704  0.52140067  0.21337707     0.06700
C668        C  0.37560110  0.78805851  0.24536160     0.03700
C669        C  0.36495796  0.83333602  0.24613066    -0.12500
C670        C  0.31053554  0.85100689  0.23496813     0.01200
C671        C  0.26988477  0.82173728  0.21531348    -0.11000
C672        C  0.28791316  0.77857579  0.19999914     0.03700
C673        C  0.33887581  0.76055784  0.21981955    -0.10400
H674        H  0.39991376  0.85458605  0.25762247     0.09300
H675        H  0.22652157  0.83389113  0.20821495     0.06800
H676        H  0.34948220  0.72576700  0.21565258     0.06700
C677        C  0.12453339  0.96205073  0.08784193     0.03700
C678        C  0.16124038  0.98954966  0.11340094    -0.12500
C679        C  0.21220456  0.97153808  0.13322401     0.01200
C680        C  0.23025091  0.92838249  0.11790309    -0.11000
C681        C  0.18961849  0.89911131  0.09822732     0.03700
C682        C  0.13519800  0.91677618  0.08705059    -0.10400
H683        H  0.15061699  0.52433699  0.11757983     0.09300
H684        H  0.27361426  0.91623428  0.12500650     0.06800
H685        H  0.10025721  0.89552297  0.07554135     0.06700
C686        C  0.13577979  0.78616348  0.07681230     0.03700
C687        C  0.15919379  0.82720169  0.06465304    -0.12500
C688        C  0.19742582  0.84958276  0.09302896     0.01200
C689        C  0.23051114  0.82362691  0.12255721    -0.11000
C690        C  0.21281281  0.77948332  0.13459322     0.03700
C691        C  0.16334410  0.76163083  0.11158375    -0.10400
H692        H  0.14187757  0.84483584  0.03573144     0.09300
H693        H  0.26959943  0.83859739  0.13565354     0.06800
H694        H  0.14755493  0.72873931  0.11984850     0.06700
C695        C  0.24987217  0.75000020  0.16756536    -0.01900
C696        C  0.37483059  0.53823830  0.08677305     0.03700
C697        C  0.33862997  0.51080710  0.11284567    -0.12500
C698        C  0.28780869  0.52874412  0.13295164     0.01200
C699        C  0.26936244  0.57181674  0.11768690    -0.11000
C700        C  0.30944283  0.60108030  0.09733511     0.03700
C701        C  0.36366682  0.58346062  0.08548420    -0.10400
H702        H  0.34958231  0.97610637  0.11726229     0.09300
H703        H  0.22611374  0.58391630  0.12527261     0.06800
H704        H  0.39822817  0.60476440  0.07343171     0.06700
C705        C  0.36299264  0.71405037  0.07606161     0.03700
C706        C  0.33924675  0.67318239  0.06371665    -0.12500
C707        C  0.30140711  0.65062909  0.09230831     0.01200
C708        C  0.26872727  0.67644964  0.12226970    -0.11000
C709        C  0.28653511  0.72057021  0.13429327     0.03700
C710        C  0.33580645  0.73845439  0.11108303    -0.10400
H711        H  0.35621834  0.65576201  0.03454056     0.09300
H712        H  0.22990205  0.66140244  0.13574941     0.06800
H713        H  0.35180290  0.77126291  0.11944368     0.06700
C714        C  0.25023355  0.50012188  0.16566027    -0.01900
O715        O  0.05762916  0.70117992  0.30530348    -0.71200
O716        O  0.93924369  0.73424865  0.05472275    -0.71400
O717        O  0.94219158  0.70126738  0.30492793    -0.71300
O718        O  0.05984890  0.73420010  0.05506634    -0.71300
O719        O  0.05857421  0.79993220  0.02518847    -0.71300
O720        O  0.94159063  0.76694584  0.27466616    -0.71300
O721        O  0.94046978  0.79988901  0.02462074    -0.71200
O722        O  0.05895794  0.76692922  0.27523794    -0.71400
V723        V  0.99972086  0.71903751  0.01288846     1.35200
V724        V  0.99989650  0.78234587  0.31764468     1.35200
C725        C  0.07820443  0.72773018  0.27620781     0.78000
C726        C  0.91675634  0.77241870  0.05141957     0.78100
C727        C  0.92218717  0.72780513  0.27557086     0.78000
C728        C  0.08220236  0.77243802  0.05199481     0.77900
O729        O  0.94152917  0.54994468  0.30804810    -0.71200
O730        O  0.05851708  0.51696732  0.05857727    -0.71400
O731        O  0.05963748  0.54989935  0.30861207    -0.71300
O732        O  0.94115212  0.51695149  0.05800898    -0.71300
O733        O  0.94247463  0.95119963  0.02795989    -0.71300
O734        O  0.06085977  0.98425410  0.27853161    -0.71300
O735        O  0.05790833  0.95128443  0.02833604    -0.71200
O736        O  0.94025292  0.98420894  0.27818865    -0.71400
V737        V  0.00021068  0.53236296  0.01559494     1.35200
V738        V  0.00038153  0.96905085  0.32036979     1.35200
C739        C  0.91789639  0.52244545  0.28125300     0.78000
C740        C  0.07791245  0.97782453  0.05768707     0.78100
C741        C  0.08335263  0.52242265  0.28182580     0.78000
C742        C  0.92190615  0.97775179  0.05705122     0.77900
C743        C  0.86430662  0.53616115  0.25644347     0.03700
C744        C  0.83675755  0.51163703  0.22166189    -0.12500
C745        C  0.78728363  0.52948683  0.19865482     0.01200
C746        C  0.76957183  0.57362322  0.21069715    -0.11000
C747        C  0.80263876  0.59957071  0.24024209     0.03700
C748        C  0.84086268  0.57718161  0.26862142    -0.10400
H749        H  0.85256296  0.97875385  0.21338721     0.09300
H750        H  0.73048886  0.58859373  0.19759246     0.06800
H751        H  0.85816164  0.59480317  0.29755463     0.06700
C752        C  0.87555524  0.71203295  0.24542683     0.03700
C753        C  0.83886332  0.73953336  0.21985262    -0.12500
C754        C  0.78789696  0.72152834  0.20002889     0.01200
C755        C  0.76983801  0.67837325  0.21535103    -0.11000
C756        C  0.81045373  0.64910009  0.23504724     0.03700
C757        C  0.86487077  0.66676103  0.24623990    -0.10400
H758        H  0.84949854  0.77431778  0.21566367     0.09300
H759        H  0.72647673  0.66622671  0.20823467     0.06800
H760        H  0.89979914  0.64550528  0.25776757     0.06700
C761        C  0.87487928  0.96191489  0.08684511     0.03700
C762        C  0.83864466  0.98934749  0.11288130    -0.12500
C763        C  0.78782320  0.97139873  0.13297972     0.01200
C764        C  0.76940428  0.92831880  0.11772223    -0.11000
C765        C  0.80952004  0.89905829  0.09741332     0.03700
C766        C  0.86375425  0.91668633  0.08559949    -0.10400
H767        H  0.84957071  0.52405570  0.11727575     0.09300
H768        H  0.72615261  0.91621202  0.12528944     0.06800
H769        H  0.89834258  0.89538784  0.07358671     0.06700
C770        C  0.86305371  0.78607462  0.07610829     0.03700
C771        C  0.83583058  0.76165589  0.11110956    -0.12500
C772        C  0.78656248  0.77954542  0.13432027     0.00800
C773        C  0.76878279  0.82367642  0.12230836    -0.11000
C774        C  0.80150015  0.84950992  0.09237916     0.03700
C775        C  0.83935916  0.82697114  0.06379606    -0.10400
H776        H  0.85179524  0.72883407  0.11945410     0.09300
H777        H  0.72995370  0.83872287  0.13577645     0.06800
H778        H  0.85636267  0.84441337  0.03464170     0.06700
C779        C  0.62452153  0.53808338  0.08786396     0.03700
C780        C  0.66123074  0.51058087  0.11342180    -0.12500
C781        C  0.71219723  0.52859068  0.13324175     0.01200
C782        C  0.73024042  0.57175083  0.11792526    -0.11000
C783        C  0.68960788  0.60102306  0.09824926     0.03700
C784        C  0.63518759  0.58335790  0.08707118    -0.10400
H785        H  0.65061004  0.97579263  0.11760002     0.09300
H786        H  0.77360138  0.58390168  0.12503598     0.06800
H787        H  0.60024637  0.60461109  0.07555976     0.06700
C788        C  0.63575591  0.71396751  0.07684443     0.03700
C789        C  0.66332830  0.73849877  0.11161239    -0.12500
C790        C  0.71280691  0.72064583  0.13461512     0.01200
C791        C  0.73050259  0.67650420  0.12257993    -0.11000
C792        C  0.69741467  0.65055264  0.09305313     0.03700
C793        C  0.65918029  0.67293688  0.06467979    -0.10400
H794        H  0.64753740  0.77138758  0.11987983     0.09300
H795        H  0.76958736  0.66153221  0.13568049     0.06800
H796        H  0.64186937  0.65530784  0.03575574     0.06700
C797        C  0.63709888  0.96404950  0.25717885     0.03700
C798        C  0.66081438  0.92316413  0.26950593    -0.12500
C799        C  0.69866164  0.90061922  0.24091709     0.01200
C800        C  0.73135652  0.92644808  0.21096846    -0.11000
C801        C  0.71356028  0.97057394  0.19894908     0.03700
C802        C  0.66429731  0.98846049  0.22216371    -0.10400
H803        H  0.64382571  0.90573170  0.29867101     0.09300
H804        H  0.77018371  0.91140300  0.19749631     0.06800
H805        H  0.64831718  0.52127657  0.21381142     0.06700
C806        C  0.62525916  0.78821994  0.24645162     0.03700
C807        C  0.66147393  0.76079082  0.22039515    -0.12500
C808        C  0.71229492  0.77873479  0.20029172     0.01200
C809        C  0.73073059  0.82180950  0.21555450    -0.11000
C810        C  0.69063447  0.85107022  0.23588742     0.03700
C811        C  0.63640634  0.83344517  0.24772157    -0.10400
H812        H  0.65053144  0.72608698  0.21598788     0.09300
H813        H  0.77398078  0.83391212  0.20797968     0.06800
H814        H  0.60183303  0.85474605  0.25975560     0.06700
C815        C  0.74987671  0.75011809  0.16758807    -0.01900
C816        C  0.75022948  0.00000816  0.16567935    -0.01900
O817        O  0.44249172  0.54895272  0.36126000    -0.71200
O818        O  0.56089908  0.51586985  0.61187139    -0.71400
O819        O  0.44029397  0.51593308  0.61149694    -0.71300
O820        O  0.55792987  0.54885078  0.36166593    -0.71300
O821        O  0.55848516  0.98317821  0.39194189    -0.71300
O822        O  0.44157189  0.95019447  0.64135862    -0.71300
O823        O  0.55967513  0.95023579  0.64198931    -0.71200
O824        O  0.44111753  0.98319762  0.39131021    -0.71400
V825        V  0.50041164  0.53108829  0.65369031     1.35200
V826        V  0.50021402  0.96777985  0.34893373     1.35200
C827        C  0.42188517  0.52240070  0.39034014     0.78000
C828        C  0.58339171  0.97770304  0.61518990     0.78100
C829        C  0.41794670  0.97769146  0.61455290     0.78000
C830        C  0.57790454  0.52231421  0.39103697     0.77900
O831        O  0.55853944  0.70018069  0.35856652    -0.71200
O832        O  0.44162193  0.73315138  0.60797462    -0.71400
O833        O  0.55898755  0.73317382  0.60860463    -0.71300
O834        O  0.44043158  0.70022016  0.35793830    -0.71300
O835        O  0.43921264  0.76585781  0.38803756    -0.71300
O836        O  0.55761017  0.79893321  0.63863456    -0.71300
O837        O  0.44217606  0.79882684  0.63823372    -0.71200
O838        O  0.55981920  0.76592435  0.38840618    -0.71400
V839        V  0.49989335  0.71775921  0.65098760     1.35200
V840        V  0.49969677  0.78107142  0.34621221     1.35200
C841        C  0.58217011  0.72768455  0.38535857     0.78000
C842        C  0.42220590  0.77228810  0.60886692     0.78100
C843        C  0.57821412  0.77237942  0.60956043     0.78000
C844        C  0.41671369  0.72769290  0.38472649     0.77900
C845        C  0.13706781  0.53606812  0.59047877     0.03700
C846        C  0.16078906  0.57694926  0.60280668    -0.12500
C847        C  0.19863899  0.59949654  0.57421984     0.01200
C848        C  0.23134247  0.57367142  0.54427844    -0.11000
C849        C  0.21355392  0.52954451  0.53226415     0.03700
C850        C  0.16427948  0.51165604  0.55547193    -0.10400
H851        H  0.14380312  0.59437911  0.63197073     0.09300
H852        H  0.27016815  0.58872063  0.53080221     0.06800
H853        H  0.14830039  0.97884056  0.54712037     0.06700
C854        C  0.12524027  0.71189452  0.57975626     0.03700
C855        C  0.13638142  0.66666856  0.58102151    -0.12500
C856        C  0.19061044  0.64904483  0.56918924     0.01200
C857        C  0.23071121  0.67830747  0.54886123    -0.11000
C858        C  0.21228288  0.72138580  0.53360241     0.03700
C859        C  0.16146139  0.73932826  0.55370316    -0.10400
H860        H  0.10180494  0.64536735  0.59305462     0.09300
H861        H  0.27395900  0.66620368  0.54128342     0.06800
H862        H  0.15052608  0.77403500  0.54929881     0.06700
C863        C  0.36437501  0.96396239  0.58972405     0.03700
C864        C  0.34098407  0.92291233  0.60186827    -0.12500
C865        C  0.30273979  0.90053623  0.57349956     0.01200
C866        C  0.26963106  0.92649622  0.54399098    -0.11000
C867        C  0.28731108  0.97064583  0.53196271     0.03700
C868        C  0.33678453  0.98850217  0.55496737    -0.10400
H869        H  0.35831390  0.90527053  0.63078034     0.09300
H870        H  0.23054171  0.91152424  0.53090007     0.06800
H871        H  0.35255678  0.52140052  0.54671059     0.06700
C872        C  0.37560103  0.78805855  0.57869490     0.03700
C873        C  0.36495802  0.83333612  0.57946382    -0.12500
C874        C  0.31053543  0.85100687  0.56830144     0.01200
C875        C  0.26988464  0.82173722  0.54864687    -0.11000
C876        C  0.28791308  0.77857575  0.53333251     0.03700
C877        C  0.33887575  0.76055781  0.55315294    -0.10400
H878        H  0.39991342  0.85458586  0.59095535     0.09300
H879        H  0.22652142  0.83389103  0.54154834     0.06800
H880        H  0.34948211  0.72576711  0.54898605     0.06700
C881        C  0.12453339  0.96205075  0.42117534     0.03700
C882        C  0.16124039  0.98954966  0.44673426    -0.12500
C883        C  0.21220454  0.97153818  0.46655738     0.01200
C884        C  0.23025082  0.92838260  0.45123645    -0.11000
C885        C  0.18961851  0.89911138  0.43156074     0.03700
C886        C  0.13519786  0.91677611  0.42038398    -0.10400
H887        H  0.15061761  0.52433628  0.45091294     0.09300
H888        H  0.27361453  0.91623439  0.45833991     0.06800
H889        H  0.10025773  0.89552331  0.40887499     0.06700
C890        C  0.13577980  0.78616353  0.41014569     0.03700
C891        C  0.15919390  0.82720176  0.39798637    -0.12500
C892        C  0.19742584  0.84958282  0.42636234     0.01200
C893        C  0.23051150  0.82362707  0.45589064    -0.11000
C894        C  0.21281288  0.77948334  0.46792653     0.03700
C895        C  0.16334418  0.76163104  0.44491712    -0.10400
H896        H  0.14187777  0.84483577  0.36906487     0.09300
H897        H  0.26959831  0.83859704  0.46898643     0.06800
H898        H  0.14755460  0.72873884  0.45318208     0.06700
C899        C  0.24987218  0.75000017  0.50089872    -0.01900
C900        C  0.37483066  0.53823826  0.42010647     0.03700
C901        C  0.33862999  0.51080688  0.44617905    -0.12500
C902        C  0.28780869  0.52874407  0.46628497     0.01200
C903        C  0.26936232  0.57181672  0.45102027    -0.11000
C904        C  0.30944293  0.60108024  0.43066845     0.03700
C905        C  0.36366684  0.58346051  0.41881768    -0.10400
H906        H  0.34958242  0.97610553  0.45059580     0.09300
H907        H  0.22611460  0.58391604  0.45860578     0.06800
H908        H  0.39822866  0.60476460  0.40676509     0.06700
C909        C  0.36299266  0.71405037  0.40939498     0.03700
C910        C  0.33924694  0.67318230  0.39705002    -0.12500
C911        C  0.30140722  0.65062903  0.42564172     0.01200
C912        C  0.26872724  0.67644956  0.45560304    -0.11000
C913        C  0.28653506  0.72057015  0.46762663     0.03700
C914        C  0.33580639  0.73845434  0.44441639    -0.10400
H915        H  0.35621841  0.65576210  0.36787431     0.09300
H916        H  0.22990219  0.66140242  0.46908269     0.06800
H917        H  0.35180279  0.77126291  0.45277707     0.06700
C918        C  0.25023353  0.50012186  0.49899365    -0.01900
O919        O  0.05762912  0.70118005  0.63863688    -0.71200
O920        O  0.93924380  0.73424858  0.38805604    -0.71400
O921        O  0.94219171  0.70126753  0.63826120    -0.71300
O922        O  0.05984909  0.73420001  0.38839956    -0.71300
O923        O  0.05857413  0.79993219  0.35852188    -0.71300
O924        O  0.94159055  0.76694598  0.60799949    -0.71300
O925        O  0.94046973  0.79988899  0.35795411    -0.71200
O926        O  0.05895782  0.76692930  0.60857127    -0.71400
V927        V  0.99972096  0.71903745  0.34622171     1.35200
V928        V  0.99989641  0.78234600  0.65097801     1.35200
C929        C  0.07820436  0.72773024  0.60954118     0.78000
C930        C  0.91675641  0.77241868  0.38475294     0.78100
C931        C  0.92218726  0.72780526  0.60890410     0.78000
C932        C  0.08220239  0.77243802  0.38532816     0.77900
O933        O  0.94152912  0.54994466  0.64138145    -0.71200
O934        O  0.05851700  0.51696732  0.39191060    -0.71400
O935        O  0.05963758  0.54989943  0.64194553    -0.71300
O936        O  0.94115201  0.51695162  0.39134222    -0.71300
O937        O  0.94247483  0.95119946  0.36129322    -0.71300
O938        O  0.06085967  0.98425403  0.61186496    -0.71300
O939        O  0.05790857  0.95128437  0.36166933    -0.71200
O940        O  0.94025286  0.98420893  0.61152201    -0.71400
V941        V  0.00021064  0.53236302  0.34892825     1.35200
V942        V  0.00038146  0.96905081  0.65370315     1.35200
C943        C  0.91789634  0.52244544  0.61458632     0.78000
C944        C  0.07791253  0.97782447  0.39102040     0.78100
C945        C  0.08335269  0.52242273  0.61515923     0.78000
C946        C  0.92190617  0.97775169  0.39038445     0.77900
C947        C  0.86430661  0.53616118  0.58977676     0.03700
C948        C  0.83675759  0.51163702  0.55499513    -0.12500
C949        C  0.78728364  0.52948685  0.53198807     0.01200
C950        C  0.76957184  0.57362317  0.54403046    -0.11000
C951        C  0.80263876  0.59957072  0.57357534     0.03700
C952        C  0.84086268  0.57718162  0.60195472    -0.10400
H953        H  0.85256261  0.97875440  0.54672076     0.09300
H954        H  0.73048861  0.58859373  0.53092560     0.06800
H955        H  0.85816173  0.59480324  0.63088797     0.06700
C956        C  0.87555524  0.71203300  0.57876018     0.03700
C957        C  0.83886319  0.73953336  0.55318596    -0.12500
C958        C  0.78789685  0.72152837  0.53336228     0.01200
C959        C  0.76983782  0.67837316  0.54868420    -0.11000
C960        C  0.81045374  0.64910009  0.56838057     0.03700
C961        C  0.86487048  0.66676122  0.57957324    -0.10400
H962        H  0.84949853  0.77431800  0.54899692     0.09300
H963        H  0.72647769  0.66622684  0.54156796     0.06800
H964        H  0.89980015  0.64550461  0.59110139     0.06700
C965        C  0.87487936  0.96191479  0.42017844     0.03700
C966        C  0.83864484  0.98934764  0.44621469    -0.12500
C967        C  0.78782325  0.97139867  0.46631305     0.01200
C968        C  0.76940429  0.92831879  0.45105559    -0.11000
C969        C  0.80952005  0.89905825  0.43074665     0.03700
C970        C  0.86375419  0.91668635  0.41893285    -0.10400
H971        H  0.84957076  0.52405568  0.45060910     0.09300
H972        H  0.72615259  0.91621200  0.45862280     0.06800
H973        H  0.89834284  0.89538762  0.40691992     0.06700
C974        C  0.86305375  0.78607456  0.40944170     0.03700
C975        C  0.83583055  0.76165581  0.44444285    -0.12500
C976        C  0.78656243  0.77954536  0.46765359     0.00800
C977        C  0.76878310  0.82367631  0.45564166    -0.11000
C978        C  0.80150013  0.84950988  0.42571255     0.03700
C979        C  0.83935938  0.82697121  0.39712934    -0.10400
H980        H  0.85179516  0.72883392  0.45278740     0.09300
H981        H  0.72995262  0.83872329  0.46911034     0.06800
H982        H  0.85636237  0.84441295  0.36797583     0.06700
C983        C  0.62452147  0.53808332  0.42119732     0.03700
C984        C  0.66123065  0.51058077  0.44675517    -0.12500
C985        C  0.71219719  0.52859062  0.46657504     0.01200
C986        C  0.73024034  0.57175074  0.45125846    -0.11000
C987        C  0.68960777  0.60102301  0.43158257     0.03700
C988        C  0.63518745  0.58335784  0.42040456    -0.10400
H989        H  0.65061007  0.97579259  0.45093344     0.09300
H990        H  0.77360149  0.58390160  0.45836911     0.06800
H991        H  0.60024623  0.60461102  0.40889312     0.06700
C992        C  0.63575584  0.71396747  0.41017776     0.03700
C993        C  0.66332819  0.73849874  0.44494577    -0.12500
C994        C  0.71280680  0.72064575  0.46794847     0.01200
C995        C  0.73050251  0.67650413  0.45591323    -0.11000
C996        C  0.69741463  0.65055258  0.42638635     0.03700
C997        C  0.65918018  0.67293684  0.39801313    -0.10400
H998        H  0.64753751  0.77138734  0.45321311     0.09300
H999        H  0.76958722  0.66153216  0.46901369     0.06800
H1000       H  0.64186917  0.65530771  0.36908894     0.06700
C1001       C  0.63709901  0.96404950  0.59051229     0.03700
C1002       C  0.66081454  0.92316414  0.60283930    -0.12500
C1003       C  0.69866163  0.90061918  0.57425042     0.01200
C1004       C  0.73135625  0.92644816  0.54430191    -0.11000
C1005       C  0.71356029  0.97057391  0.53228239     0.03700
C1006       C  0.66429733  0.98846036  0.55549709    -0.10400
H1007       H  0.64382568  0.90573143  0.63200478     0.09300
H1008       H  0.77018524  0.91140244  0.53082907     0.06800
H1009       H  0.64831790  0.52127581  0.54714506     0.06700
C1010       C  0.62525910  0.78821993  0.57978498     0.03700
C1011       C  0.66147381  0.76079084  0.55372844    -0.12500
C1012       C  0.71229478  0.77873487  0.53362492     0.01200
C1013       C  0.73073028  0.82180944  0.54888787    -0.11000
C1014       C  0.69063442  0.85107021  0.56922077     0.03700
C1015       C  0.63640623  0.83344515  0.58105496    -0.10400
H1016       H  0.65053146  0.72608712  0.54932124     0.09300
H1017       H  0.77398206  0.83391246  0.54131283     0.06800
H1018       H  0.60183300  0.85474599  0.59308902     0.06700
C1019       C  0.74987659  0.75011806  0.50092137    -0.01900
C1020       C  0.75022952  0.00000813  0.49901266    -0.01900
O1021       O  0.44249193  0.54895278  0.69459335    -0.71200
O1022       O  0.56089896  0.51586978  0.94520477    -0.71400
O1023       O  0.44029392  0.51593303  0.94483029    -0.71300
O1024       O  0.55793010  0.54885082  0.69499920    -0.71300
O1025       O  0.55848539  0.98317817  0.72527517    -0.71300
O1026       O  0.44157191  0.95019460  0.97469191    -0.71300
O1027       O  0.55967502  0.95023595  0.97532265    -0.71200
O1028       O  0.44111775  0.98319754  0.72464363    -0.71400
V1029       V  0.50041152  0.53108821  0.98702365     1.35200
V1030       V  0.50021417  0.96777977  0.68226709     1.35200
C1031       C  0.42188522  0.52240075  0.72367343     0.78000
C1032       C  0.58339161  0.97770319  0.94852322     0.78100
C1033       C  0.41794666  0.97769158  0.94788622     0.78000
C1034       C  0.57790455  0.52231431  0.72437037     0.77900
O1035       O  0.55853931  0.70018065  0.69189989    -0.71200
O1036       O  0.44162191  0.73315138  0.94130801    -0.71400
O1037       O  0.55898768  0.73317384  0.94193804    -0.71300
O1038       O  0.44043156  0.70022018  0.69127150    -0.71300
O1039       O  0.43921260  0.76585776  0.72137090    -0.71300
O1040       O  0.55761041  0.79893325  0.97196799    -0.71300
O1041       O  0.44217617  0.79882688  0.97156702    -0.71200
O1042       O  0.55981910  0.76592428  0.72173955    -0.71400
V1043       V  0.49989335  0.71775920  0.98432101     1.35200
V1044       V  0.49969668  0.78107140  0.67954558     1.35200
C1045       C  0.58216999  0.72768448  0.71869195     0.78000
C1046       C  0.42220593  0.77228813  0.94220027     0.78100
C1047       C  0.57821429  0.77237945  0.94289383     0.78000
C1048       C  0.41671371  0.72769288  0.71805979     0.77900
C1049       C  0.13706777  0.53606811  0.92381200     0.03700
C1050       C  0.16078915  0.57694919  0.93614002    -0.12500
C1051       C  0.19863905  0.59949654  0.90755321     0.01200
C1052       C  0.23134269  0.57367146  0.87761183    -0.11000
C1053       C  0.21355402  0.52954453  0.86559751     0.03700
C1054       C  0.16427952  0.51165604  0.88880519    -0.10400
H1055       H  0.14380323  0.59437898  0.96530412     0.09300
H1056       H  0.27016797  0.58872053  0.86413578     0.06800
H1057       H  0.14830080  0.97884101  0.88045386     0.06700
C1058       C  0.12524032  0.71189448  0.91308967     0.03700
C1059       C  0.13638146  0.66666854  0.91435494    -0.12500
C1060       C  0.19061056  0.64904487  0.90252265     0.01200
C1061       C  0.23071116  0.67830757  0.88219462    -0.11000
C1062       C  0.21228286  0.72138581  0.86693571     0.03700
C1063       C  0.16146133  0.73932829  0.88703651    -0.10400
H1064       H  0.10180523  0.64536743  0.92638797     0.09300
H1065       H  0.27395968  0.66620365  0.87461663     0.06800
H1066       H  0.15052605  0.77403476  0.88263220     0.06700
C1067       C  0.36437499  0.96396242  0.92305739     0.03700
C1068       C  0.34098407  0.92291238  0.93520164    -0.12500
C1069       C  0.30273974  0.90053627  0.90683297     0.01200
C1070       C  0.26963101  0.92649623  0.87732433    -0.11000
C1071       C  0.28731116  0.97064576  0.86529598     0.03700
C1072       C  0.33678464  0.98850232  0.88830061    -0.10400
H1073       H  0.35831387  0.90527062  0.96411359     0.09300
H1074       H  0.23054188  0.91152437  0.86423353     0.06800
H1075       H  0.35255692  0.52140054  0.88004375     0.06700
C1076       C  0.37560099  0.78805857  0.91202826     0.03700
C1077       C  0.36495814  0.83333624  0.91279720    -0.12500
C1078       C  0.31053544  0.85100692  0.90163480     0.01200
C1079       C  0.26988445  0.82173738  0.88198020    -0.11000
C1080       C  0.28791300  0.77857580  0.86666591     0.03700
C1081       C  0.33887566  0.76055792  0.88648630    -0.10400
H1082       H  0.39991287  0.85458547  0.92428842     0.09300
H1083       H  0.22652227  0.83389093  0.87488185     0.06800
H1084       H  0.34948215  0.72576694  0.88231930     0.06700
C1085       C  0.12453333  0.96205086  0.75450872     0.03700
C1086       C  0.16124042  0.98954976  0.78006763    -0.12500
C1087       C  0.21220460  0.97153816  0.79989069     0.01200
C1088       C  0.23025059  0.92838260  0.78456974    -0.11000
C1089       C  0.18961846  0.89911140  0.76489397     0.03700
C1090       C  0.13519786  0.91677627  0.75371732    -0.10400
H1091       H  0.15061757  0.52433611  0.78424638     0.09300
H1092       H  0.27361536  0.91623396  0.79167346     0.06800
H1093       H  0.10025716  0.89552311  0.74220815     0.06700
C1094       C  0.13577987  0.78616357  0.74347889     0.03700
C1095       C  0.15919388  0.82720178  0.73131971    -0.12500
C1096       C  0.19742572  0.84958283  0.75969568     0.01200
C1097       C  0.23051139  0.82362704  0.78922400    -0.11000
C1098       C  0.21281282  0.77948334  0.80125987     0.03700
C1099       C  0.16334417  0.76163088  0.77825037    -0.10400
H1100       H  0.14187759  0.84483598  0.70239802     0.09300
H1101       H  0.26959823  0.83859699  0.80231978     0.06800
H1102       H  0.14755500  0.72873942  0.78651506     0.06700
C1103       C  0.24987213  0.75000023  0.83423204    -0.01900
C1104       C  0.37483064  0.53823827  0.75343975     0.03700
C1105       C  0.33862991  0.51080711  0.77951240    -0.12500
C1106       C  0.28780874  0.52874417  0.79961839     0.01200
C1107       C  0.26936220  0.57181686  0.78435366    -0.11000
C1108       C  0.30944288  0.60108030  0.76400173     0.03700
C1109       C  0.36366672  0.58346050  0.75215097    -0.10400
H1110       H  0.34958242  0.97610635  0.78392908     0.09300
H1111       H  0.22611502  0.58391605  0.79193907     0.06800
H1112       H  0.39822877  0.60476476  0.74009817     0.06700
C1113       C  0.36299275  0.71405030  0.74272828     0.03700
C1114       C  0.33924690  0.67318230  0.73038317    -0.12500
C1115       C  0.30140711  0.65062909  0.75897488     0.01200
C1116       C  0.26872717  0.67644962  0.78893632    -0.11000
C1117       C  0.28653511  0.72057024  0.80095987     0.03700
C1118       C  0.33580649  0.73845447  0.77774967    -0.10400
H1119       H  0.35621820  0.65576222  0.70120769     0.09300
H1120       H  0.22990292  0.66140277  0.80241574     0.06800
H1121       H  0.35180265  0.77126246  0.78611020     0.06700
C1122       C  0.25023358  0.50012190  0.83232697    -0.01900
O1123       O  0.05762906  0.70117998  0.97197027    -0.71200
O1124       O  0.93924392  0.73424873  0.72138944    -0.71400
O1125       O  0.94219158  0.70126749  0.97159463    -0.71300
O1126       O  0.05984905  0.73420021  0.72173287    -0.71300
O1127       O  0.05857408  0.79993236  0.69185516    -0.71300
O1128       O  0.94159080  0.76694586  0.94133270    -0.71300
O1129       O  0.94046966  0.79988909  0.69128744    -0.71200
O1130       O  0.05895779  0.76692917  0.94190450    -0.71400
V1131       V  0.99972097  0.71903762  0.67955507     1.35200
V1132       V  0.99989653  0.78234586  0.98431131     1.35200
C1133       C  0.07820431  0.72773014  0.94287452     0.78000
C1134       C  0.91675643  0.77241875  0.71808632     0.78100
C1135       C  0.92218731  0.72780518  0.94223744     0.78000
C1136       C  0.08220243  0.77243815  0.71866139     0.77900
O1137       O  0.94152918  0.54994455  0.97471473    -0.71200
O1138       O  0.05851694  0.51696727  0.72524396    -0.71400
O1139       O  0.05963761  0.54989932  0.97527881    -0.71300
O1140       O  0.94115188  0.51695159  0.72467553    -0.71300
O1141       O  0.94247479  0.95119939  0.69462659    -0.71300
O1142       O  0.06085954  0.98425418  0.94519815    -0.71300
O1143       O  0.05790849  0.95128447  0.69500274    -0.71200
O1144       O  0.94025293  0.98420906  0.94485532    -0.71400
V1145       V  0.00021059  0.53236303  0.68226162     1.35200
V1146       V  0.00038139  0.96905096  0.98703646     1.35200
C1147       C  0.91789638  0.52244533  0.94791961     0.78000
C1148       C  0.07791244  0.97782459  0.72435380     0.78100
C1149       C  0.08335264  0.52242266  0.94849244     0.78000
C1150       C  0.92190617  0.97775163  0.72371784     0.77900
C1151       C  0.86430663  0.53616110  0.92311008     0.03700
C1152       C  0.83675755  0.51163693  0.88832850    -0.12500
C1153       C  0.78728361  0.52948678  0.86532145     0.01200
C1154       C  0.76957179  0.57362310  0.87736386    -0.11000
C1155       C  0.80263876  0.59957068  0.90690873     0.03700
C1156       C  0.84086263  0.57718151  0.93528802    -0.10400
H1157       H  0.85256296  0.97875366  0.88005386     0.09300
H1158       H  0.73048851  0.58859368  0.86425901     0.06800
H1159       H  0.85816183  0.59480327  0.96422159     0.06700
C1160       C  0.87555526  0.71203296  0.91209355     0.03700
C1161       C  0.83886335  0.73953339  0.88651928    -0.12500
C1162       C  0.78789687  0.72152841  0.86669563     0.01200
C1163       C  0.76983813  0.67837327  0.88201760    -0.11000
C1164       C  0.81045374  0.64910007  0.90171389     0.03700
C1165       C  0.86487060  0.66676112  0.91290666    -0.10400
H1166       H  0.84949867  0.77431777  0.88233026     0.09300
H1167       H  0.72647640  0.66622656  0.87490112     0.06800
H1168       H  0.89979973  0.64550483  0.92443465     0.06700
C1169       C  0.87487938  0.96191478  0.75351179     0.03700
C1170       C  0.83864483  0.98934753  0.77954804    -0.12500
C1171       C  0.78782332  0.97139873  0.79964644     0.01200
C1172       C  0.76940424  0.92831884  0.78438894    -0.11000
C1173       C  0.80952012  0.89905828  0.76408004     0.03700
C1174       C  0.86375408  0.91668642  0.75226624    -0.10400
H1175       H  0.84957062  0.52405555  0.78394241     0.09300
H1176       H  0.72615290  0.91621221  0.79195601     0.06800
H1177       H  0.89834348  0.89538714  0.74025298     0.06700
C1178       C  0.86305375  0.78607456  0.74277510     0.03700
C1179       C  0.83583046  0.76165580  0.77777624    -0.12500
C1180       C  0.78656236  0.77954542  0.80098695     0.00800
C1181       C  0.76878303  0.82367643  0.78897505    -0.11000
C1182       C  0.80150024  0.84950992  0.75904596     0.03700
C1183       C  0.83935938  0.82697118  0.73046274    -0.10400
H1184       H  0.85179494  0.72883393  0.78612075     0.09300
H1185       H  0.72995314  0.83872329  0.80244349     0.06800
H1186       H  0.85636239  0.84441295  0.70130910     0.06700
C1187       C  0.62452142  0.53808336  0.75453076     0.03700
C1188       C  0.66123064  0.51058076  0.78008855    -0.12500
C1189       C  0.71219724  0.52859059  0.79990835     0.01200
C1190       C  0.73024035  0.57175078  0.78459187    -0.11000
C1191       C  0.68960768  0.60102301  0.76491599     0.03700
C1192       C  0.63518734  0.58335789  0.75373797    -0.10400
H1193       H  0.65060983  0.97579206  0.78426692     0.09300
H1194       H  0.77360111  0.58390161  0.79170251     0.06800
H1195       H  0.60024636  0.60461089  0.74222666     0.06700
C1196       C  0.63575573  0.71396744  0.74351115     0.03700
C1197       C  0.66332815  0.73849861  0.77827914    -0.12500
C1198       C  0.71280673  0.72064576  0.80128187     0.01200
C1199       C  0.73050238  0.67650411  0.78924667    -0.11000
C1200       C  0.69741444  0.65055257  0.75971985     0.03700
C1201       C  0.65918015  0.67293686  0.73134659    -0.10400
H1202       H  0.64753711  0.77138791  0.78654663     0.09300
H1203       H  0.76958724  0.66153209  0.80234715     0.06800
H1204       H  0.64186895  0.65530752  0.70242203     0.06700
C1205       C  0.63709895  0.96404956  0.92384563     0.03700
C1206       C  0.66081451  0.92316429  0.93617259    -0.12500
C1207       C  0.69866159  0.90061924  0.90758381     0.01200
C1208       C  0.73135628  0.92644815  0.87763522    -0.11000
C1209       C  0.71356042  0.97057396  0.86561581     0.03700
C1210       C  0.66429745  0.98846056  0.88883047    -0.10400
H1211       H  0.64382536  0.90573135  0.96533854     0.09300
H1212       H  0.77018490  0.91140243  0.86416244     0.06800
H1213       H  0.64831775  0.52127589  0.88047829     0.06700
C1214       C  0.62525910  0.78822003  0.91311830     0.03700
C1215       C  0.66147377  0.76079091  0.88706180    -0.12500
C1216       C  0.71229473  0.77873493  0.86695830     0.01200
C1217       C  0.73073026  0.82180953  0.88222121    -0.11000
C1218       C  0.69063442  0.85107028  0.90255417     0.03700
C1219       C  0.63640612  0.83344532  0.91438834    -0.10400
H1220       H  0.65053144  0.72608730  0.88265468     0.09300
H1221       H  0.77398174  0.83391245  0.87464620     0.06800
H1222       H  0.60183347  0.85474576  0.92642216     0.06700
C1223       C  0.74987656  0.75011811  0.83425476    -0.01900
C1224       C  0.75022956  0.00000822  0.83234603    -0.01900
loop_ 
_geom_bond_atom_site_label_1 
_geom_bond_atom_site_label_2 
_geom_bond_distance 
_geom_bond_site_symmetry_2 
_ccdc_geom_bond_type 
O1           C11   1.266       .  A
O1          V417   1.877   1_554  S
O2          C624   1.263   1_545  A
O2            V9   1.915       .  S
O3          C625   1.263   1_545  A
O3            V9   1.916       .  S
O4           C14   1.267       .  A
O4          V417   1.877   1_554  S
O5          C626   1.260       .  A
O5           V10   1.904       .  S
O6           C13   1.269       .  A
O6          V214   1.886       .  S
O7           C12   1.269       .  A
O7          V214   1.887       .  S
O8          C623   1.260       .  A
O8           V10   1.905       .  S
V9          O205   1.877       .  S
V9          O208   1.877       .  S
V9          V826   2.085   1_545  T
V10         O414   1.886   1_554  S
V10         O415   1.887   1_554  S
V10        V1029   2.085   1_554  T
C11         O620   1.260   1_545  A
C11          C84   1.473       .  S
C12         O614   1.263       .  A
C12         C185   1.490       .  S
C13         O615   1.263       .  A
C13          C47   1.491       .  S
C14         O617   1.260   1_545  A
C14         C167   1.472       .  S
O15          C25   1.269       .  A
O15         V431   1.886   1_554  S
O16          C26   1.260       .  A
O16          V23   1.904       .  S
O17          C27   1.260       .  A
O17          V23   1.905       .  S
O18          C28   1.269       .  A
O18         V431   1.887   1_554  S
O19          C28   1.263       .  A
O19          V24   1.915       .  S
O20          C27   1.266       .  A
O20         V228   1.877       .  S
O21          C26   1.267       .  A
O21         V228   1.877       .  S
O22          C25   1.263       .  A
O22          V24   1.916       .  S
V23         O219   1.886       .  S
V23         O222   1.887       .  S
V23         V228   2.085       .  T
V24         O428   1.877   1_554  S
V24         O429   1.877   1_554  S
V24         V431   2.085   1_554  T
C25         C176   1.491       .  S
C26          C56   1.472       .  S
C27         C194   1.473       .  S
C28          C93   1.490       .  S
C29         C129   1.490       .  S
C29          C30   1.394       .  A
C29          C34   1.416       .  A
C30          C31   1.390       .  A
C30          H35   1.083       .  S
C31          C40   1.510       .  S
C31          C32   1.398       .  A
C32          C33   1.435       .  A
C32          H36   1.076       .  S
C33          C34   1.428       .  A
C33         C102   1.570       .  S
C34         H649   1.082   1_545  S
H37         C646   1.082       .  S
C38         C113   1.473       .  S
C38          C39   1.386       .  A
C38          C43   1.403       .  A
C39          C40   1.397       .  A
C39          H44   1.080       .  S
C40          C41   1.409       .  A
C41          C42   1.437       .  A
C41          H45   1.080       .  S
C42          C43   1.416       .  A
C42          C83   1.557       .  S
C43          H46   1.082       .  S
C47          C48   1.394       .  A
C47          C52   1.416       .  A
C48          C49   1.389       .  A
C48          H53   1.083       .  S
C49          C58   1.510       .  S
C49          C50   1.397       .  A
C50          C51   1.435       .  A
C50          H54   1.076       .  S
C51          C52   1.429       .  A
C51         C714   1.570       .  S
C52         H667   1.082       .  S
H55         C664   1.082   1_545  S
C56          C57   1.385       .  A
C56          C61   1.403       .  A
C57          C58   1.397       .  A
C57          H62   1.081       .  S
C58          C59   1.409       .  A
C59          C60   1.437       .  A
C59          H63   1.081       .  S
C60          C61   1.416       .  A
C60          C83   1.557       .  S
C61          H64   1.082       .  S
C65         C128   1.472       .  S
C65          C66   1.403       .  A
C65          C70   1.385       .  A
C66          C67   1.416       .  A
C66         H683   1.082       .  S
C67          C68   1.437       .  A
C67         C714   1.557       .  S
C68          C69   1.409       .  A
C68          H72   1.081       .  S
C69          C76   1.510       .  S
C69          C70   1.397       .  A
C70          H73   1.081       .  S
H71         C678   1.082   1_545  S
C74         C116   1.491       .  S
C74          C75   1.394       .  A
C74          C79   1.416       .  A
C75          C76   1.389       .  A
C75          H80   1.083       .  S
C76          C77   1.397       .  A
C77          C78   1.435       .  A
C77          H81   1.076       .  S
C78          C79   1.429       .  A
C78          C83   1.570       .  S
C79          H82   1.082       .  S
C83          C97   1.570       .  S
C84          C85   1.403       .  A
C84          C89   1.386       .  A
C85          C86   1.416       .  A
C85         H702   1.082   1_545  S
C86          C87   1.437       .  A
C86         C102   1.557       .  S
C87          C88   1.409       .  A
C87          H91   1.080       .  S
C88          C95   1.510       .  S
C88          C89   1.397       .  A
C89          H92   1.080       .  S
H90         C697   1.082       .  S
C93          C94   1.394       .  A
C93          C98   1.416       .  A
C94          C95   1.390       .  A
C94          H99   1.083       .  S
C95          C96   1.398       .  A
C96          C97   1.435       .  A
C96         H100   1.076       .  S
C97          C98   1.428       .  A
C98         H101   1.082       .  S
C102        C663   1.570   1_545  S
C102        C679   1.557   1_545  S
O103        C113   1.266       .  A
O103        V315   1.877   1_455  S
O104        C114   1.263       .  A
O104        V111   1.916       .  S
O105        C115   1.267       .  A
O105        V315   1.877       .  S
O106        C116   1.263       .  A
O106        V111   1.916   1_455  S
O107        C116   1.269       .  A
O107        V520   1.886   1_454  S
O108        C115   1.260       .  A
O108        V112   1.904       .  S
O109        C114   1.269       .  A
O109        V520   1.887   1_554  S
O110        C113   1.260       .  A
O110        V112   1.905   1_455  S
V111        O511   1.877   1_654  S
V111        O513   1.877   1_554  S
V111        V520   2.085   1_554  T
V112        O311   1.886   1_655  S
V112        O313   1.887       .  S
V112        V315   2.085       .  T
C114        C158   1.490       .  S
C115        C140   1.472       .  S
O117        C127   1.269       .  A
O117        V329   1.886   1_655  S
O118        C740   1.260   1_545  A
O118        V125   1.904       .  S
O119        C129   1.269       .  A
O119        V329   1.887       .  S
O120        C742   1.260   1_545  A
O120        V125   1.905   1_655  S
O121        C130   1.266       .  A
O121        V534   1.877   1_654  S
O122        C741   1.263       .  A
O122        V126   1.916       .  S
O123        C128   1.267       .  A
O123        V534   1.877   1_554  S
O124        C739   1.263       .  A
O124        V126   1.916   1_655  S
V125        O525   1.886   1_454  S
V125        O527   1.887   1_554  S
V125       V1146   2.085   1_544  T
V126        O325   1.877   1_455  S
V126        O327   1.877       .  S
V126        V941   2.085       .  T
C127        O736   1.263   1_545  A
C127        C131   1.491       .  S
C128        O730   1.260       .  A
C129        O734   1.263   1_545  A
C130        O732   1.260       .  A
C130        C149   1.473       .  S
C131        C132   1.416       .  A
C131        C136   1.394       .  A
C132        C133   1.429       .  A
C132        H749   1.082   1_545  S
C133        C134   1.435       .  A
C133        C816   1.570       .  S
C134        C135   1.397       .  A
C134        H138   1.076       .  S
C135        C144   1.510       .  S
C135        C136   1.389       .  A
C136        H139   1.083       .  S
H137        C744   1.082       .  S
C140        C141   1.403       .  A
C140        C145   1.385       .  A
C141        C142   1.416       .  A
C141        H146   1.082       .  S
C142        C143   1.437       .  A
C142        C203   1.557       .  S
C143        C144   1.409       .  A
C143        H147   1.081       .  S
C144        C145   1.397       .  A
C145        H148   1.081       .  S
C149        C150   1.403       .  A
C149        C154   1.386       .  A
C150        C151   1.416       .  A
C150        H767   1.082       .  S
C151        C152   1.437       .  A
C151        C204   1.557       .  S
C152        C153   1.409       .  A
C152        H156   1.080       .  S
C153        C162   1.510       .  S
C153        C154   1.397       .  A
C154        H157   1.080       .  S
H155        C762   1.082   1_545  S
C158        C159   1.416       .  A
C158        C163   1.394       .  A
C159        C160   1.428       .  A
C159        H164   1.082       .  S
C160        C161   1.435       .  A
C160        C203   1.570       .  S
C161        C162   1.398       .  A
C161        H165   1.076       .  S
C162        C163   1.390       .  A
C163        H166   1.083       .  S
C167        C168   1.403       .  A
C167        C172   1.385       .  A
C168        C169   1.416       .  A
C168        H785   1.082   1_545  S
C169        C170   1.437       .  A
C169        C816   1.557       .  S
C170        C171   1.409       .  A
C170        H174   1.081       .  S
C171        C180   1.510       .  S
C171        C172   1.397       .  A
C172        H175   1.081       .  S
H173        C780   1.082       .  S
C176        C177   1.416       .  A
C176        C181   1.394       .  A
C177        C178   1.429       .  A
C177        H182   1.082       .  S
C178        C179   1.435       .  A
C178        C203   1.570       .  S
C179        C180   1.397       .  A
C179        H183   1.076       .  S
C180        C181   1.389       .  A
C181        H184   1.083       .  S
C185        C186   1.394       .  A
C185        C190   1.416       .  A
C186        C187   1.390       .  A
C186        H191   1.083       .  S
C187        C198   1.510       .  S
C187        C188   1.398       .  A
C188        C189   1.435       .  A
C188        H192   1.076       .  S
C189        C190   1.428       .  A
C189        C204   1.570       .  S
C190        H805   1.082       .  S
H193        C802   1.082   1_545  S
C194        C195   1.403       .  A
C194        C199   1.386       .  A
C195        C196   1.416       .  A
C195        H200   1.082       .  S
C196        C197   1.437       .  A
C196        C203   1.557       .  S
C197        C198   1.409       .  A
C197        H201   1.080       .  S
C198        C199   1.397       .  A
C199        H202   1.080       .  S
C204        C745   1.570       .  S
C204        C781   1.557       .  S
O205        C215   1.266       .  A
O206        C828   1.263   1_545  A
O206        V213   1.915       .  S
O207        C829   1.263   1_545  A
O207        V213   1.916       .  S
O208        C218   1.267       .  A
O209        C830   1.260       .  A
O209        V214   1.904       .  S
O210        C217   1.269       .  A
O210        V418   1.886       .  S
O211        C216   1.269       .  A
O211        V418   1.887       .  S
O212        C827   1.260       .  A
O212        V214   1.905       .  S
V213        O409   1.877       .  S
V213        O412   1.877       .  S
V213       V1030   2.085   1_545  T
V214        V621   2.085       .  T
C215        O824   1.260   1_545  A
C215        C288   1.473       .  S
C216        O818   1.263       .  A
C216        C389   1.490       .  S
C217        O819   1.263       .  A
C217        C251   1.491       .  S
C218        O821   1.260   1_545  A
C218        C371   1.472       .  S
O219        C229   1.269       .  A
O220        C230   1.260       .  A
O220        V227   1.904       .  S
O221        C231   1.260       .  A
O221        V227   1.905       .  S
O222        C232   1.269       .  A
O223        C232   1.263       .  A
O223        V228   1.915       .  S
O224        C231   1.266       .  A
O224        V432   1.877       .  S
O225        C230   1.267       .  A
O225        V432   1.877       .  S
O226        C229   1.263       .  A
O226        V228   1.916       .  S
V227        O423   1.886       .  S
V227        O426   1.887       .  S
V227        V432   2.085       .  T
C229        C380   1.491       .  S
C230        C260   1.472       .  S
C231        C398   1.473       .  S
C232        C297   1.490       .  S
C233        C333   1.490       .  S
C233        C234   1.394       .  A
C233        C238   1.416       .  A
C234        C235   1.390       .  A
C234        H239   1.083       .  S
C235        C244   1.510       .  S
C235        C236   1.398       .  A
C236        C237   1.435       .  A
C236        H240   1.076       .  S
C237        C238   1.428       .  A
C237        C306   1.570       .  S
C238        H853   1.082   1_545  S
H241        C850   1.082       .  S
C242        C317   1.473       .  S
C242        C243   1.386       .  A
C242        C247   1.403       .  A
C243        C244   1.397       .  A
C243        H248   1.080       .  S
C244        C245   1.409       .  A
C245        C246   1.437       .  A
C245        H249   1.080       .  S
C246        C247   1.416       .  A
C246        C287   1.557       .  S
C247        H250   1.082       .  S
C251        C252   1.394       .  A
C251        C256   1.416       .  A
C252        C253   1.389       .  A
C252        H257   1.083       .  S
C253        C262   1.510       .  S
C253        C254   1.397       .  A
C254        C255   1.435       .  A
C254        H258   1.076       .  S
C255        C256   1.429       .  A
C255        C918   1.570       .  S
C256        H871   1.082       .  S
H259        C868   1.082   1_545  S
C260        C261   1.385       .  A
C260        C265   1.403       .  A
C261        C262   1.397       .  A
C261        H266   1.081       .  S
C262        C263   1.409       .  A
C263        C264   1.437       .  A
C263        H267   1.081       .  S
C264        C265   1.416       .  A
C264        C287   1.557       .  S
C265        H268   1.082       .  S
C269        C332   1.472       .  S
C269        C270   1.403       .  A
C269        C274   1.385       .  A
C270        C271   1.416       .  A
C270        H887   1.082       .  S
C271        C272   1.437       .  A
C271        C918   1.557       .  S
C272        C273   1.409       .  A
C272        H276   1.081       .  S
C273        C280   1.510       .  S
C273        C274   1.397       .  A
C274        H277   1.081       .  S
H275        C882   1.082   1_545  S
C278        C320   1.491       .  S
C278        C279   1.394       .  A
C278        C283   1.416       .  A
C279        C280   1.389       .  A
C279        H284   1.083       .  S
C280        C281   1.397       .  A
C281        C282   1.435       .  A
C281        H285   1.076       .  S
C282        C283   1.429       .  A
C282        C287   1.570       .  S
C283        H286   1.082       .  S
C287        C301   1.570       .  S
C288        C289   1.403       .  A
C288        C293   1.386       .  A
C289        C290   1.416       .  A
C289        H906   1.082   1_545  S
C290        C291   1.437       .  A
C290        C306   1.557       .  S
C291        C292   1.409       .  A
C291        H295   1.080       .  S
C292        C299   1.510       .  S
C292        C293   1.397       .  A
C293        H296   1.080       .  S
H294        C901   1.082       .  S
C297        C298   1.394       .  A
C297        C302   1.416       .  A
C298        C299   1.390       .  A
C298        H303   1.083       .  S
C299        C300   1.398       .  A
C300        C301   1.435       .  A
C300        H304   1.076       .  S
C301        C302   1.428       .  A
C302        H305   1.082       .  S
C306        C867   1.570   1_545  S
C306        C883   1.557   1_545  S
O307        C317   1.266       .  A
O307        V519   1.877   1_455  S
O308        C318   1.263       .  A
O308        V315   1.916       .  S
O309        C319   1.267       .  A
O309        V519   1.877       .  S
O310        C320   1.263       .  A
O310        V315   1.916   1_455  S
O311        C320   1.269       .  A
O312        C319   1.260       .  A
O312        V316   1.904       .  S
O313        C318   1.269       .  A
O314        C317   1.260       .  A
O314        V316   1.905   1_455  S
V316        O515   1.886   1_655  S
V316        O517   1.887       .  S
V316        V519   2.085       .  T
C318        C362   1.490       .  S
C319        C344   1.472       .  S
O321        C331   1.269       .  A
O321        V533   1.886   1_655  S
O322        C944   1.260   1_545  A
O322        V329   1.904       .  S
O323        C333   1.269       .  A
O323        V533   1.887       .  S
O324        C946   1.260   1_545  A
O324        V329   1.905   1_655  S
O325        C334   1.266       .  A
O326        C945   1.263       .  A
O326        V330   1.916       .  S
O327        C332   1.267       .  A
O328        C943   1.263       .  A
O328        V330   1.916   1_655  S
V329        V738   2.085   1_545  T
V330        O529   1.877   1_455  S
V330        O531   1.877       .  S
V330       V1145   2.085       .  T
C331        O940   1.263   1_545  A
C331        C335   1.491       .  S
C332        O934   1.260       .  A
C333        O938   1.263   1_545  A
C334        O936   1.260       .  A
C334        C353   1.473       .  S
C335        C336   1.416       .  A
C335        C340   1.394       .  A
C336        C337   1.429       .  A
C336        H953   1.082   1_545  S
C337        C338   1.435       .  A
C337       C1020   1.570       .  S
C338        C339   1.397       .  A
C338        H342   1.076       .  S
C339        C348   1.510       .  S
C339        C340   1.389       .  A
C340        H343   1.083       .  S
H341        C948   1.082       .  S
C344        C345   1.403       .  A
C344        C349   1.385       .  A
C345        C346   1.416       .  A
C345        H350   1.082       .  S
C346        C347   1.437       .  A
C346        C407   1.557       .  S
C347        C348   1.409       .  A
C347        H351   1.081       .  S
C348        C349   1.397       .  A
C349        H352   1.081       .  S
C353        C354   1.403       .  A
C353        C358   1.386       .  A
C354        C355   1.416       .  A
C354        H971   1.082       .  S
C355        C356   1.437       .  A
C355        C408   1.557       .  S
C356        C357   1.409       .  A
C356        H360   1.080       .  S
C357        C366   1.510       .  S
C357        C358   1.397       .  A
C358        H361   1.080       .  S
H359        C966   1.082   1_545  S
C362        C363   1.416       .  A
C362        C367   1.394       .  A
C363        C364   1.428       .  A
C363        H368   1.082       .  S
C364        C365   1.435       .  A
C364        C407   1.570       .  S
C365        C366   1.398       .  A
C365        H369   1.076       .  S
C366        C367   1.390       .  A
C367        H370   1.083       .  S
C371        C372   1.403       .  A
C371        C376   1.385       .  A
C372        C373   1.416       .  A
C372        H989   1.082   1_545  S
C373        C374   1.437       .  A
C373       C1020   1.557       .  S
C374        C375   1.409       .  A
C374        H378   1.081       .  S
C375        C384   1.510       .  S
C375        C376   1.397       .  A
C376        H379   1.081       .  S
H377        C984   1.082       .  S
C380        C381   1.416       .  A
C380        C385   1.394       .  A
C381        C382   1.429       .  A
C381        H386   1.082       .  S
C382        C383   1.435       .  A
C382        C407   1.570       .  S
C383        C384   1.397       .  A
C383        H387   1.076       .  S
C384        C385   1.389       .  A
C385        H388   1.083       .  S
C389        C390   1.394       .  A
C389        C394   1.416       .  A
C390        C391   1.390       .  A
C390        H395   1.083       .  S
C391        C402   1.510       .  S
C391        C392   1.398       .  A
C392        C393   1.435       .  A
C392        H396   1.076       .  S
C393        C394   1.428       .  A
C393        C408   1.570       .  S
C394       H1009   1.082       .  S
H397       C1006   1.082   1_545  S
C398        C399   1.403       .  A
C398        C403   1.386       .  A
C399        C400   1.416       .  A
C399        H404   1.082       .  S
C400        C401   1.437       .  A
C400        C407   1.557       .  S
C401        C402   1.409       .  A
C401        H405   1.080       .  S
C402        C403   1.397       .  A
C403        H406   1.080       .  S
C408        C949   1.570       .  S
C408        C985   1.557       .  S
O409        C419   1.266       .  A
O410       C1032   1.263   1_545  A
O410        V417   1.915       .  S
O411       C1033   1.263   1_545  A
O411        V417   1.916       .  S
O412        C422   1.267       .  A
O413       C1034   1.260       .  A
O413        V418   1.904       .  S
O414        C421   1.269       .  A
O415        C420   1.269       .  A
O416       C1031   1.260       .  A
O416        V418   1.905       .  S
V417        V622   2.085   1_546  T
V418        V825   2.085       .  T
C419       O1028   1.260   1_545  A
C419        C492   1.473       .  S
C420       O1022   1.263       .  A
C420        C593   1.490       .  S
C421       O1023   1.263       .  A
C421        C455   1.491       .  S
C422       O1025   1.260   1_545  A
C422        C575   1.472       .  S
O423        C433   1.269       .  A
O424        C434   1.260       .  A
O424        V431   1.904       .  S
O425        C435   1.260       .  A
O425        V431   1.905       .  S
O426        C436   1.269       .  A
O427        C436   1.263       .  A
O427        V432   1.915       .  S
O428        C435   1.266       .  A
O429        C434   1.267       .  A
O430        C433   1.263       .  A
O430        V432   1.916       .  S
C433        C584   1.491       .  S
C434        C464   1.472       .  S
C435        C602   1.473       .  S
C436        C501   1.490       .  S
C437        C537   1.490       .  S
C437        C438   1.394       .  A
C437        C442   1.416       .  A
C438        C439   1.390       .  A
C438        H443   1.083       .  S
C439        C448   1.510       .  S
C439        C440   1.398       .  A
C440        C441   1.435       .  A
C440        H444   1.076       .  S
C441        C442   1.428       .  A
C441        C510   1.570       .  S
C442       H1057   1.082   1_545  S
H445       C1054   1.082       .  S
C446        C521   1.473       .  S
C446        C447   1.386       .  A
C446        C451   1.403       .  A
C447        C448   1.397       .  A
C447        H452   1.080       .  S
C448        C449   1.409       .  A
C449        C450   1.437       .  A
C449        H453   1.080       .  S
C450        C451   1.416       .  A
C450        C491   1.557       .  S
C451        H454   1.082       .  S
C455        C456   1.394       .  A
C455        C460   1.416       .  A
C456        C457   1.389       .  A
C456        H461   1.083       .  S
C457        C466   1.510       .  S
C457        C458   1.397       .  A
C458        C459   1.435       .  A
C458        H462   1.076       .  S
C459        C460   1.429       .  A
C459       C1122   1.570       .  S
C460       H1075   1.082       .  S
H463       C1072   1.082   1_545  S
C464        C465   1.385       .  A
C464        C469   1.403       .  A
C465        C466   1.397       .  A
C465        H470   1.081       .  S
C466        C467   1.409       .  A
C467        C468   1.437       .  A
C467        H471   1.081       .  S
C468        C469   1.416       .  A
C468        C491   1.557       .  S
C469        H472   1.082       .  S
C473        C536   1.472       .  S
C473        C474   1.403       .  A
C473        C478   1.385       .  A
C474        C475   1.416       .  A
C474       H1091   1.082       .  S
C475        C476   1.437       .  A
C475       C1122   1.557       .  S
C476        C477   1.409       .  A
C476        H480   1.081       .  S
C477        C484   1.510       .  S
C477        C478   1.397       .  A
C478        H481   1.081       .  S
H479       C1086   1.082   1_545  S
C482        C524   1.491       .  S
C482        C483   1.394       .  A
C482        C487   1.416       .  A
C483        C484   1.389       .  A
C483        H488   1.083       .  S
C484        C485   1.397       .  A
C485        C486   1.435       .  A
C485        H489   1.076       .  S
C486        C487   1.429       .  A
C486        C491   1.570       .  S
C487        H490   1.082       .  S
C491        C505   1.570       .  S
C492        C493   1.403       .  A
C492        C497   1.386       .  A
C493        C494   1.416       .  A
C493       H1110   1.082   1_545  S
C494        C495   1.437       .  A
C494        C510   1.557       .  S
C495        C496   1.409       .  A
C495        H499   1.080       .  S
C496        C503   1.510       .  S
C496        C497   1.397       .  A
C497        H500   1.080       .  S
H498       C1105   1.082       .  S
C501        C502   1.394       .  A
C501        C506   1.416       .  A
C502        C503   1.390       .  A
C502        H507   1.083       .  S
C503        C504   1.398       .  A
C504        C505   1.435       .  A
C504        H508   1.076       .  S
C505        C506   1.428       .  A
C506        H509   1.082       .  S
C510       C1071   1.570   1_545  S
C510       C1087   1.557   1_545  S
O511        C521   1.266       .  A
O512        C522   1.263       .  A
O512        V519   1.916       .  S
O513        C523   1.267       .  A
O514        C524   1.263       .  A
O514        V519   1.916   1_455  S
O515        C524   1.269       .  A
O516        C523   1.260       .  A
O516        V520   1.904       .  S
O517        C522   1.269       .  A
O518        C521   1.260       .  A
O518        V520   1.905   1_455  S
C522        C566   1.490       .  S
C523        C548   1.472       .  S
O525        C535   1.269       .  A
O526       C1148   1.260   1_545  A
O526        V533   1.904       .  S
O527        C537   1.269       .  A
O528       C1150   1.260   1_545  A
O528        V533   1.905   1_655  S
O529        C538   1.266       .  A
O530       C1149   1.263       .  A
O530        V534   1.916       .  S
O531        C536   1.267       .  A
O532       C1147   1.263       .  A
O532        V534   1.916   1_655  S
V533        V942   2.085   1_545  T
V534        V737   2.085   1_556  T
C535       O1144   1.263   1_545  A
C535        C539   1.491       .  S
C536       O1138   1.260       .  A
C537       O1142   1.263   1_545  A
C538       O1140   1.260       .  A
C538        C557   1.473       .  S
C539        C540   1.416       .  A
C539        C544   1.394       .  A
C540        C541   1.429       .  A
C540       H1157   1.082   1_545  S
C541        C542   1.435       .  A
C541       C1224   1.570       .  S
C542        C543   1.397       .  A
C542        H546   1.076       .  S
C543        C552   1.510       .  S
C543        C544   1.389       .  A
C544        H547   1.083       .  S
H545       C1152   1.082       .  S
C548        C549   1.403       .  A
C548        C553   1.385       .  A
C549        C550   1.416       .  A
C549        H554   1.082       .  S
C550        C551   1.437       .  A
C550        C611   1.557       .  S
C551        C552   1.409       .  A
C551        H555   1.081       .  S
C552        C553   1.397       .  A
C553        H556   1.081       .  S
C557        C558   1.403       .  A
C557        C562   1.386       .  A
C558        C559   1.416       .  A
C558       H1175   1.082       .  S
C559        C560   1.437       .  A
C559        C612   1.557       .  S
C560        C561   1.409       .  A
C560        H564   1.080       .  S
C561        C570   1.510       .  S
C561        C562   1.397       .  A
C562        H565   1.080       .  S
H563       C1170   1.082   1_545  S
C566        C567   1.416       .  A
C566        C571   1.394       .  A
C567        C568   1.428       .  A
C567        H572   1.082       .  S
C568        C569   1.435       .  A
C568        C611   1.570       .  S
C569        C570   1.398       .  A
C569        H573   1.076       .  S
C570        C571   1.390       .  A
C571        H574   1.083       .  S
C575        C576   1.403       .  A
C575        C580   1.385       .  A
C576        C577   1.416       .  A
C576       H1193   1.082   1_545  S
C577        C578   1.437       .  A
C577       C1224   1.557       .  S
C578        C579   1.409       .  A
C578        H582   1.081       .  S
C579        C588   1.510       .  S
C579        C580   1.397       .  A
C580        H583   1.081       .  S
H581       C1188   1.082       .  S
C584        C585   1.416       .  A
C584        C589   1.394       .  A
C585        C586   1.429       .  A
C585        H590   1.082       .  S
C586        C587   1.435       .  A
C586        C611   1.570       .  S
C587        C588   1.397       .  A
C587        H591   1.076       .  S
C588        C589   1.389       .  A
C589        H592   1.083       .  S
C593        C594   1.394       .  A
C593        C598   1.416       .  A
C594        C595   1.390       .  A
C594        H599   1.083       .  S
C595        C606   1.510       .  S
C595        C596   1.398       .  A
C596        C597   1.435       .  A
C596        H600   1.076       .  S
C597        C598   1.428       .  A
C597        C612   1.570       .  S
C598       H1213   1.082       .  S
H601       C1210   1.082   1_545  S
C602        C603   1.403       .  A
C602        C607   1.386       .  A
C603        C604   1.416       .  A
C603        H608   1.082       .  S
C604        C605   1.437       .  A
C604        C611   1.557       .  S
C605        C606   1.409       .  A
C605        H609   1.080       .  S
C606        C607   1.397       .  A
C607        H610   1.080       .  S
C612       C1153   1.570       .  S
C612       C1189   1.557       .  S
O613        C623   1.266       .  A
O613       V1029   1.877   1_554  S
O614        V621   1.915       .  S
O615        V621   1.916       .  S
O616        C626   1.267       .  A
O616       V1029   1.877   1_554  S
O617        V622   1.904       .  S
O618        C625   1.269       .  A
O618        V826   1.886       .  S
O619        C624   1.269       .  A
O619        V826   1.887       .  S
O620        V622   1.905       .  S
V621        O817   1.877       .  S
V621        O820   1.877       .  S
V622       O1026   1.886   1_554  S
V622       O1027   1.887   1_554  S
C623        C696   1.473       .  S
C624        C797   1.490       .  S
C625        C659   1.491       .  S
C626        C779   1.472       .  S
O627        C637   1.269       .  A
O627       V1043   1.886   1_554  S
O628        C638   1.260       .  A
O628        V635   1.904       .  S
O629        C639   1.260       .  A
O629        V635   1.905       .  S
O630        C640   1.269       .  A
O630       V1043   1.887   1_554  S
O631        C640   1.263       .  A
O631        V636   1.915       .  S
O632        C639   1.266       .  A
O632        V840   1.877       .  S
O633        C638   1.267       .  A
O633        V840   1.877       .  S
O634        C637   1.263       .  A
O634        V636   1.916       .  S
V635        O831   1.886       .  S
V635        O834   1.887       .  S
V635        V840   2.085       .  T
V636       O1040   1.877   1_554  S
V636       O1041   1.877   1_554  S
V636       V1043   2.085   1_554  T
C637        C788   1.491       .  S
C638        C668   1.472       .  S
C639        C806   1.473       .  S
C640        C705   1.490       .  S
C641        C741   1.490       .  S
C641        C642   1.394       .  A
C641        C646   1.416       .  A
C642        C643   1.390       .  A
C642        H647   1.083       .  S
C643        C652   1.510       .  S
C643        C644   1.398       .  A
C644        C645   1.435       .  A
C644        H648   1.076       .  S
C645        C646   1.428       .  A
C645        C714   1.570       .  S
C650        C725   1.473       .  S
C650        C651   1.386       .  A
C650        C655   1.403       .  A
C651        C652   1.397       .  A
C651        H656   1.080       .  S
C652        C653   1.409       .  A
C653        C654   1.437       .  A
C653        H657   1.080       .  S
C654        C655   1.416       .  A
C654        C695   1.557       .  S
C655        H658   1.082       .  S
C659        C660   1.394       .  A
C659        C664   1.416       .  A
C660        C661   1.389       .  A
C660        H665   1.083       .  S
C661        C670   1.510       .  S
C661        C662   1.397       .  A
C662        C663   1.435       .  A
C662        H666   1.076       .  S
C663        C664   1.429       .  A
C668        C669   1.385       .  A
C668        C673   1.403       .  A
C669        C670   1.397       .  A
C669        H674   1.081       .  S
C670        C671   1.409       .  A
C671        C672   1.437       .  A
C671        H675   1.081       .  S
C672        C673   1.416       .  A
C672        C695   1.557       .  S
C673        H676   1.082       .  S
C677        C740   1.472       .  S
C677        C678   1.403       .  A
C677        C682   1.385       .  A
C678        C679   1.416       .  A
C679        C680   1.437       .  A
C680        C681   1.409       .  A
C680        H684   1.081       .  S
C681        C688   1.510       .  S
C681        C682   1.397       .  A
C682        H685   1.081       .  S
C686        C728   1.491       .  S
C686        C687   1.394       .  A
C686        C691   1.416       .  A
C687        C688   1.389       .  A
C687        H692   1.083       .  S
C688        C689   1.397       .  A
C689        C690   1.435       .  A
C689        H693   1.076       .  S
C690        C691   1.429       .  A
C690        C695   1.570       .  S
C691        H694   1.082       .  S
C695        C709   1.570       .  S
C696        C697   1.403       .  A
C696        C701   1.386       .  A
C697        C698   1.416       .  A
C698        C699   1.437       .  A
C698        C714   1.557       .  S
C699        C700   1.409       .  A
C699        H703   1.080       .  S
C700        C707   1.510       .  S
C700        C701   1.397       .  A
C701        H704   1.080       .  S
C705        C706   1.394       .  A
C705        C710   1.416       .  A
C706        C707   1.390       .  A
C706        H711   1.083       .  S
C707        C708   1.398       .  A
C708        C709   1.435       .  A
C708        H712   1.076       .  S
C709        C710   1.428       .  A
C710        H713   1.082       .  S
O715        C725   1.266       .  A
O715        V927   1.877   1_455  S
O716        C726   1.263       .  A
O716        V723   1.916       .  S
O717        C727   1.267       .  A
O717        V927   1.877       .  S
O718        C728   1.263       .  A
O718        V723   1.916   1_455  S
O719        C728   1.269       .  A
O719       V1132   1.886   1_454  S
O720        C727   1.260       .  A
O720        V724   1.904       .  S
O721        C726   1.269       .  A
O721       V1132   1.887   1_554  S
O722        C725   1.260       .  A
O722        V724   1.905   1_455  S
V723       O1123   1.877   1_654  S
V723       O1125   1.877   1_554  S
V723       V1132   2.085   1_554  T
V724        O923   1.886   1_655  S
V724        O925   1.887       .  S
V724        V927   2.085       .  T
C726        C770   1.490       .  S
C727        C752   1.472       .  S
O729        C739   1.269       .  A
O729        V941   1.886   1_655  S
O730        V737   1.904       .  S
O731        C741   1.269       .  A
O731        V941   1.887       .  S
O732        V737   1.905   1_655  S
O733        C742   1.266       .  A
O733       V1146   1.877   1_654  S
O734        V738   1.916       .  S
O735        C740   1.267       .  A
O735       V1146   1.877   1_554  S
O736        V738   1.916   1_655  S
V737       O1137   1.886   1_454  S
V737       O1139   1.887   1_554  S
V738        O937   1.877   1_455  S
V738        O939   1.877       .  S
C739        C743   1.491       .  S
C742        C761   1.473       .  S
C743        C744   1.416       .  A
C743        C748   1.394       .  A
C744        C745   1.429       .  A
C745        C746   1.435       .  A
C746        C747   1.397       .  A
C746        H750   1.076       .  S
C747        C756   1.510       .  S
C747        C748   1.389       .  A
C748        H751   1.083       .  S
C752        C753   1.403       .  A
C752        C757   1.385       .  A
C753        C754   1.416       .  A
C753        H758   1.082       .  S
C754        C755   1.437       .  A
C754        C815   1.557       .  S
C755        C756   1.409       .  A
C755        H759   1.081       .  S
C756        C757   1.397       .  A
C757        H760   1.081       .  S
C761        C762   1.403       .  A
C761        C766   1.386       .  A
C762        C763   1.416       .  A
C763        C764   1.437       .  A
C763        C816   1.557   1_565  S
C764        C765   1.409       .  A
C764        H768   1.080       .  S
C765        C774   1.510       .  S
C765        C766   1.397       .  A
C766        H769   1.080       .  S
C770        C771   1.416       .  A
C770        C775   1.394       .  A
C771        C772   1.428       .  A
C771        H776   1.082       .  S
C772        C773   1.435       .  A
C772        C815   1.570       .  S
C773        C774   1.398       .  A
C773        H777   1.076       .  S
C774        C775   1.390       .  A
C775        H778   1.083       .  S
C779        C780   1.403       .  A
C779        C784   1.385       .  A
C780        C781   1.416       .  A
C781        C782   1.437       .  A
C782        C783   1.409       .  A
C782        H786   1.081       .  S
C783        C792   1.510       .  S
C783        C784   1.397       .  A
C784        H787   1.081       .  S
C788        C789   1.416       .  A
C788        C793   1.394       .  A
C789        C790   1.429       .  A
C789        H794   1.082       .  S
C790        C791   1.435       .  A
C790        C815   1.570       .  S
C791        C792   1.397       .  A
C791        H795   1.076       .  S
C792        C793   1.389       .  A
C793        H796   1.083       .  S
C797        C798   1.394       .  A
C797        C802   1.416       .  A
C798        C799   1.390       .  A
C798        H803   1.083       .  S
C799        C810   1.510       .  S
C799        C800   1.398       .  A
C800        C801   1.435       .  A
C800        H804   1.076       .  S
C801        C802   1.428       .  A
C801        C816   1.570   1_565  S
C806        C807   1.403       .  A
C806        C811   1.386       .  A
C807        C808   1.416       .  A
C807        H812   1.082       .  S
C808        C809   1.437       .  A
C808        C815   1.557       .  S
C809        C810   1.409       .  A
C809        H813   1.080       .  S
C810        C811   1.397       .  A
C811        H814   1.080       .  S
O817        C827   1.266       .  A
O818        V825   1.915       .  S
O819        V825   1.916       .  S
O820        C830   1.267       .  A
O821        V826   1.904       .  S
O822        C829   1.269       .  A
O822       V1030   1.886       .  S
O823        C828   1.269       .  A
O823       V1030   1.887       .  S
O824        V826   1.905       .  S
V825       O1021   1.877       .  S
V825       O1024   1.877       .  S
C827        C900   1.473       .  S
C828       C1001   1.490       .  S
C829        C863   1.491       .  S
C830        C983   1.472       .  S
O831        C841   1.269       .  A
O832        C842   1.260       .  A
O832        V839   1.904       .  S
O833        C843   1.260       .  A
O833        V839   1.905       .  S
O834        C844   1.269       .  A
O835        C844   1.263       .  A
O835        V840   1.915       .  S
O836        C843   1.266       .  A
O836       V1044   1.877       .  S
O837        C842   1.267       .  A
O837       V1044   1.877       .  S
O838        C841   1.263       .  A
O838        V840   1.916       .  S
V839       O1035   1.886       .  S
V839       O1038   1.887       .  S
V839       V1044   2.085       .  T
C841        C992   1.491       .  S
C842        C872   1.472       .  S
C843       C1010   1.473       .  S
C844        C909   1.490       .  S
C845        C945   1.490       .  S
C845        C846   1.394       .  A
C845        C850   1.416       .  A
C846        C847   1.390       .  A
C846        H851   1.083       .  S
C847        C856   1.510       .  S
C847        C848   1.398       .  A
C848        C849   1.435       .  A
C848        H852   1.076       .  S
C849        C850   1.428       .  A
C849        C918   1.570       .  S
C854        C929   1.473       .  S
C854        C855   1.386       .  A
C854        C859   1.403       .  A
C855        C856   1.397       .  A
C855        H860   1.080       .  S
C856        C857   1.409       .  A
C857        C858   1.437       .  A
C857        H861   1.080       .  S
C858        C859   1.416       .  A
C858        C899   1.557       .  S
C859        H862   1.082       .  S
C863        C864   1.394       .  A
C863        C868   1.416       .  A
C864        C865   1.389       .  A
C864        H869   1.083       .  S
C865        C874   1.510       .  S
C865        C866   1.397       .  A
C866        C867   1.435       .  A
C866        H870   1.076       .  S
C867        C868   1.429       .  A
C872        C873   1.385       .  A
C872        C877   1.403       .  A
C873        C874   1.397       .  A
C873        H878   1.081       .  S
C874        C875   1.409       .  A
C875        C876   1.437       .  A
C875        H879   1.081       .  S
C876        C877   1.416       .  A
C876        C899   1.557       .  S
C877        H880   1.082       .  S
C881        C944   1.472       .  S
C881        C882   1.403       .  A
C881        C886   1.385       .  A
C882        C883   1.416       .  A
C883        C884   1.437       .  A
C884        C885   1.409       .  A
C884        H888   1.081       .  S
C885        C892   1.510       .  S
C885        C886   1.397       .  A
C886        H889   1.081       .  S
C890        C932   1.491       .  S
C890        C891   1.394       .  A
C890        C895   1.416       .  A
C891        C892   1.389       .  A
C891        H896   1.083       .  S
C892        C893   1.397       .  A
C893        C894   1.435       .  A
C893        H897   1.076       .  S
C894        C895   1.429       .  A
C894        C899   1.570       .  S
C895        H898   1.082       .  S
C899        C913   1.570       .  S
C900        C901   1.403       .  A
C900        C905   1.386       .  A
C901        C902   1.416       .  A
C902        C903   1.437       .  A
C902        C918   1.557       .  S
C903        C904   1.409       .  A
C903        H907   1.080       .  S
C904        C911   1.510       .  S
C904        C905   1.397       .  A
C905        H908   1.080       .  S
C909        C910   1.394       .  A
C909        C914   1.416       .  A
C910        C911   1.390       .  A
C910        H915   1.083       .  S
C911        C912   1.398       .  A
C912        C913   1.435       .  A
C912        H916   1.076       .  S
C913        C914   1.428       .  A
C914        H917   1.082       .  S
O919        C929   1.266       .  A
O919       V1131   1.877   1_455  S
O920        C930   1.263       .  A
O920        V927   1.916       .  S
O921        C931   1.267       .  A
O921       V1131   1.877       .  S
O922        C932   1.263       .  A
O922        V927   1.916   1_455  S
O923        C932   1.269       .  A
O924        C931   1.260       .  A
O924        V928   1.904       .  S
O925        C930   1.269       .  A
O926        C929   1.260       .  A
O926        V928   1.905   1_455  S
V928       O1127   1.886   1_655  S
V928       O1129   1.887       .  S
V928       V1131   2.085       .  T
C930        C974   1.490       .  S
C931        C956   1.472       .  S
O933        C943   1.269       .  A
O933       V1145   1.886   1_655  S
O934        V941   1.904       .  S
O935        C945   1.269       .  A
O935       V1145   1.887       .  S
O936        V941   1.905   1_655  S
O937        C946   1.266       .  A
O938        V942   1.916       .  S
O939        C944   1.267       .  A
O940        V942   1.916   1_655  S
V942       O1141   1.877   1_455  S
V942       O1143   1.877       .  S
C943        C947   1.491       .  S
C946        C965   1.473       .  S
C947        C948   1.416       .  A
C947        C952   1.394       .  A
C948        C949   1.429       .  A
C949        C950   1.435       .  A
C950        C951   1.397       .  A
C950        H954   1.076       .  S
C951        C960   1.510       .  S
C951        C952   1.389       .  A
C952        H955   1.083       .  S
C956        C957   1.403       .  A
C956        C961   1.385       .  A
C957        C958   1.416       .  A
C957        H962   1.082       .  S
C958        C959   1.437       .  A
C958       C1019   1.557       .  S
C959        C960   1.409       .  A
C959        H963   1.081       .  S
C960        C961   1.397       .  A
C961        H964   1.081       .  S
C965        C966   1.403       .  A
C965        C970   1.386       .  A
C966        C967   1.416       .  A
C967        C968   1.437       .  A
C967       C1020   1.557   1_565  S
C968        C969   1.409       .  A
C968        H972   1.080       .  S
C969        C978   1.510       .  S
C969        C970   1.397       .  A
C970        H973   1.080       .  S
C974        C975   1.416       .  A
C974        C979   1.394       .  A
C975        C976   1.428       .  A
C975        H980   1.082       .  S
C976        C977   1.435       .  A
C976       C1019   1.570       .  S
C977        C978   1.398       .  A
C977        H981   1.076       .  S
C978        C979   1.390       .  A
C979        H982   1.083       .  S
C983        C984   1.403       .  A
C983        C988   1.385       .  A
C984        C985   1.416       .  A
C985        C986   1.437       .  A
C986        C987   1.409       .  A
C986        H990   1.081       .  S
C987        C996   1.510       .  S
C987        C988   1.397       .  A
C988        H991   1.081       .  S
C992        C993   1.416       .  A
C992        C997   1.394       .  A
C993        C994   1.429       .  A
C993        H998   1.082       .  S
C994        C995   1.435       .  A
C994       C1019   1.570       .  S
C995        C996   1.397       .  A
C995        H999   1.076       .  S
C996        C997   1.389       .  A
C997       H1000   1.083       .  S
C1001      C1002   1.394       .  A
C1001      C1006   1.416       .  A
C1002      C1003   1.390       .  A
C1002      H1007   1.083       .  S
C1003      C1014   1.510       .  S
C1003      C1004   1.398       .  A
C1004      C1005   1.435       .  A
C1004      H1008   1.076       .  S
C1005      C1006   1.428       .  A
C1005      C1020   1.570   1_565  S
C1010      C1011   1.403       .  A
C1010      C1015   1.386       .  A
C1011      C1012   1.416       .  A
C1011      H1016   1.082       .  S
C1012      C1013   1.437       .  A
C1012      C1019   1.557       .  S
C1013      C1014   1.409       .  A
C1013      H1017   1.080       .  S
C1014      C1015   1.397       .  A
C1015      H1018   1.080       .  S
O1021      C1031   1.266       .  A
O1022      V1029   1.915       .  S
O1023      V1029   1.916       .  S
O1024      C1034   1.267       .  A
O1025      V1030   1.904       .  S
O1026      C1033   1.269       .  A
O1027      C1032   1.269       .  A
O1028      V1030   1.905       .  S
C1031      C1104   1.473       .  S
C1032      C1205   1.490       .  S
C1033      C1067   1.491       .  S
C1034      C1187   1.472       .  S
O1035      C1045   1.269       .  A
O1036      C1046   1.260       .  A
O1036      V1043   1.904       .  S
O1037      C1047   1.260       .  A
O1037      V1043   1.905       .  S
O1038      C1048   1.269       .  A
O1039      C1048   1.263       .  A
O1039      V1044   1.915       .  S
O1040      C1047   1.266       .  A
O1041      C1046   1.267       .  A
O1042      C1045   1.263       .  A
O1042      V1044   1.916       .  S
C1045      C1196   1.491       .  S
C1046      C1076   1.472       .  S
C1047      C1214   1.473       .  S
C1048      C1113   1.490       .  S
C1049      C1149   1.490       .  S
C1049      C1050   1.394       .  A
C1049      C1054   1.416       .  A
C1050      C1051   1.390       .  A
C1050      H1055   1.083       .  S
C1051      C1060   1.510       .  S
C1051      C1052   1.398       .  A
C1052      C1053   1.435       .  A
C1052      H1056   1.076       .  S
C1053      C1054   1.428       .  A
C1053      C1122   1.570       .  S
C1058      C1133   1.473       .  S
C1058      C1059   1.386       .  A
C1058      C1063   1.403       .  A
C1059      C1060   1.397       .  A
C1059      H1064   1.080       .  S
C1060      C1061   1.409       .  A
C1061      C1062   1.437       .  A
C1061      H1065   1.080       .  S
C1062      C1063   1.416       .  A
C1062      C1103   1.557       .  S
C1063      H1066   1.082       .  S
C1067      C1068   1.394       .  A
C1067      C1072   1.416       .  A
C1068      C1069   1.389       .  A
C1068      H1073   1.083       .  S
C1069      C1078   1.510       .  S
C1069      C1070   1.397       .  A
C1070      C1071   1.435       .  A
C1070      H1074   1.076       .  S
C1071      C1072   1.429       .  A
C1076      C1077   1.385       .  A
C1076      C1081   1.403       .  A
C1077      C1078   1.397       .  A
C1077      H1082   1.081       .  S
C1078      C1079   1.409       .  A
C1079      C1080   1.437       .  A
C1079      H1083   1.081       .  S
C1080      C1081   1.416       .  A
C1080      C1103   1.557       .  S
C1081      H1084   1.082       .  S
C1085      C1148   1.472       .  S
C1085      C1086   1.403       .  A
C1085      C1090   1.385       .  A
C1086      C1087   1.416       .  A
C1087      C1088   1.437       .  A
C1088      C1089   1.409       .  A
C1088      H1092   1.081       .  S
C1089      C1096   1.510       .  S
C1089      C1090   1.397       .  A
C1090      H1093   1.081       .  S
C1094      C1136   1.491       .  S
C1094      C1095   1.394       .  A
C1094      C1099   1.416       .  A
C1095      C1096   1.389       .  A
C1095      H1100   1.083       .  S
C1096      C1097   1.397       .  A
C1097      C1098   1.435       .  A
C1097      H1101   1.076       .  S
C1098      C1099   1.429       .  A
C1098      C1103   1.570       .  S
C1099      H1102   1.082       .  S
C1103      C1117   1.570       .  S
C1104      C1105   1.403       .  A
C1104      C1109   1.386       .  A
C1105      C1106   1.416       .  A
C1106      C1107   1.437       .  A
C1106      C1122   1.557       .  S
C1107      C1108   1.409       .  A
C1107      H1111   1.080       .  S
C1108      C1115   1.510       .  S
C1108      C1109   1.397       .  A
C1109      H1112   1.080       .  S
C1113      C1114   1.394       .  A
C1113      C1118   1.416       .  A
C1114      C1115   1.390       .  A
C1114      H1119   1.083       .  S
C1115      C1116   1.398       .  A
C1116      C1117   1.435       .  A
C1116      H1120   1.076       .  S
C1117      C1118   1.428       .  A
C1118      H1121   1.082       .  S
O1123      C1133   1.266       .  A
O1124      C1134   1.263       .  A
O1124      V1131   1.916       .  S
O1125      C1135   1.267       .  A
O1126      C1136   1.263       .  A
O1126      V1131   1.916   1_455  S
O1127      C1136   1.269       .  A
O1128      C1135   1.260       .  A
O1128      V1132   1.904       .  S
O1129      C1134   1.269       .  A
O1130      C1133   1.260       .  A
O1130      V1132   1.905   1_455  S
C1134      C1178   1.490       .  S
C1135      C1160   1.472       .  S
O1137      C1147   1.269       .  A
O1138      V1145   1.904       .  S
O1139      C1149   1.269       .  A
O1140      V1145   1.905   1_655  S
O1141      C1150   1.266       .  A
O1142      V1146   1.916       .  S
O1143      C1148   1.267       .  A
O1144      V1146   1.916   1_655  S
C1147      C1151   1.491       .  S
C1150      C1169   1.473       .  S
C1151      C1152   1.416       .  A
C1151      C1156   1.394       .  A
C1152      C1153   1.429       .  A
C1153      C1154   1.435       .  A
C1154      C1155   1.397       .  A
C1154      H1158   1.076       .  S
C1155      C1164   1.510       .  S
C1155      C1156   1.389       .  A
C1156      H1159   1.083       .  S
C1160      C1161   1.403       .  A
C1160      C1165   1.385       .  A
C1161      C1162   1.416       .  A
C1161      H1166   1.082       .  S
C1162      C1163   1.437       .  A
C1162      C1223   1.557       .  S
C1163      C1164   1.409       .  A
C1163      H1167   1.081       .  S
C1164      C1165   1.397       .  A
C1165      H1168   1.081       .  S
C1169      C1170   1.403       .  A
C1169      C1174   1.386       .  A
C1170      C1171   1.416       .  A
C1171      C1172   1.437       .  A
C1171      C1224   1.557   1_565  S
C1172      C1173   1.409       .  A
C1172      H1176   1.080       .  S
C1173      C1182   1.510       .  S
C1173      C1174   1.397       .  A
C1174      H1177   1.080       .  S
C1178      C1179   1.416       .  A
C1178      C1183   1.394       .  A
C1179      C1180   1.428       .  A
C1179      H1184   1.082       .  S
C1180      C1181   1.435       .  A
C1180      C1223   1.570       .  S
C1181      C1182   1.398       .  A
C1181      H1185   1.076       .  S
C1182      C1183   1.390       .  A
C1183      H1186   1.083       .  S
C1187      C1188   1.403       .  A
C1187      C1192   1.385       .  A
C1188      C1189   1.416       .  A
C1189      C1190   1.437       .  A
C1190      C1191   1.409       .  A
C1190      H1194   1.081       .  S
C1191      C1200   1.510       .  S
C1191      C1192   1.397       .  A
C1192      H1195   1.081       .  S
C1196      C1197   1.416       .  A
C1196      C1201   1.394       .  A
C1197      C1198   1.429       .  A
C1197      H1202   1.082       .  S
C1198      C1199   1.435       .  A
C1198      C1223   1.570       .  S
C1199      C1200   1.397       .  A
C1199      H1203   1.076       .  S
C1200      C1201   1.389       .  A
C1201      H1204   1.083       .  S
C1205      C1206   1.394       .  A
C1205      C1210   1.416       .  A
C1206      C1207   1.390       .  A
C1206      H1211   1.083       .  S
C1207      C1218   1.510       .  S
C1207      C1208   1.398       .  A
C1208      C1209   1.435       .  A
C1208      H1212   1.076       .  S
C1209      C1210   1.428       .  A
C1209      C1224   1.570   1_565  S
C1214      C1215   1.403       .  A
C1214      C1219   1.386       .  A
C1215      C1216   1.416       .  A
C1215      H1220   1.082       .  S
C1216      C1217   1.437       .  A
C1216      C1223   1.557       .  S
C1217      C1218   1.409       .  A
C1217      H1221   1.080       .  S
C1218      C1219   1.397       .  A
C1219      H1222   1.080       .  S
