geometry optimzed in LAMMPS
_audit_creation_date              2020-11-30 
_audit_creation_method            'lammps2cif' 
_symmetry_space_group_name_H-M    'P1' 
_symmetry_Int_Tables_number       1 
_symmetry_cell_setting            triclinic 
loop_ 
_symmetry_equiv_pos_as_xyz 
  x,y,z 
_cell_length_a                    71.51545007 
_cell_length_b                    62.918023248264774 
_cell_length_c                    36.38109459502981 
_cell_angle_alpha                 90.04209242198793 
_cell_angle_beta                  90.05829393990581 
_cell_angle_gamma                 89.9947090711883 
loop_ 
_atom_site_label 
_atom_site_type_symbol 
_atom_site_fract_x 
_atom_site_fract_y 
_atom_site_fract_z 
_atom_site_charge 
N1          N  0.23143714  0.14321266  0.29487830    -0.27200
N2          N  0.24695714  0.15304184  0.30521317    -0.35100
C3          C  0.25747040  0.15683098  0.27514836     0.01100
C4          C  0.24787906  0.14946152  0.24460431     0.07200
C5          C  0.23145477  0.14102277  0.25809912    -0.05900
H6          H  0.27093422  0.16466885  0.27543539     0.07800
H7          H  0.22056975  0.13321099  0.24244442     0.09000
Cu8        Cu  0.25260853  0.16190851  0.35961061     0.44200
Cu9        Cu  0.21139869  0.13126130  0.33065854     0.42000
Cu10       Cu  0.21917535  0.14218082  0.42588238     0.43900
N11         N  0.25288905  0.17025085  0.41535508    -0.34600
N12         N  0.24068191  0.16268353  0.43928675    -0.28900
C13         C  0.24383704  0.17144568  0.47241391    -0.05000
C14         C  0.25865794  0.18539419  0.46935649     0.07300
C15         C  0.26408763  0.18426555  0.43278787     0.01100
H16         H  0.23545472  0.16846143  0.49660289     0.08700
H17         H  0.27505122  0.19333151  0.41963700     0.07800
N18         N  0.19822062  0.12228684  0.40735014    -0.36000
N19         N  0.19517814  0.11820626  0.37226686    -0.28200
C20         C  0.18144450  0.10366071  0.36955068    -0.03500
C21         C  0.17548559  0.09836237  0.40473302     0.05100
C22         C  0.18655950  0.11054763  0.42790577     0.03200
H23         H  0.17655740  0.09701568  0.34385390     0.08300
H24         H  0.18698054  0.11014685  0.45758025     0.07200
N25         N  0.26966446  0.14304732  0.15487035    -0.27200
N26         N  0.25327951  0.15105921  0.14514342    -0.35100
C27         C  0.24320262  0.15499349  0.17563635     0.01100
C28         C  0.25390605  0.14966803  0.20594743     0.07200
C29         C  0.27060606  0.14220035  0.19183272    -0.05900
H30         H  0.22907910  0.16115877  0.17573226     0.07800
H31         H  0.28217343  0.13556215  0.20719570     0.09000
Cu32       Cu  0.24543794  0.15666177  0.09084526     0.44200
Cu33       Cu  0.28903244  0.13111561  0.11747028     0.42000
Cu34       Cu  0.27761044  0.13713515  0.02166286     0.43900
N35         N  0.24275604  0.16298296  0.03490334    -0.34600
N36         N  0.25447366  0.15555149  0.00990965    -0.28900
C37         C  0.25007506  0.16374130  0.97695425    -0.05000
C38         C  0.23496834  0.17716590  0.98131492     0.07300
C39         C  0.23061666  0.17628470  0.01838688     0.01100
H40         H  0.25803368  0.16108262  0.95210199     0.08700
H41         H  0.22005298  0.18543044  0.03262205     0.07800
N42         N  0.30058052  0.12028075  0.03996544    -0.36000
N43         N  0.30476436  0.11791919  0.07507677    -0.28200
C44         C  0.31975013  0.10510669  0.07793938    -0.03500
C45         C  0.32544923  0.09922664  0.04284642     0.05100
C46         C  0.31284429  0.10922084  0.01953984     0.03200
H47         H  0.32541883  0.09973200  0.10385941     0.08300
H48         H  0.31229393  0.10821426  0.98988440     0.07200
N49         N  0.71787571  0.17005556  0.24513117    -0.27200
N50         N  0.72185329  0.19040234  0.24067461    -0.35100
C51         C  0.73145350  0.19737259  0.27020342     0.01100
C52         C  0.73388512  0.18047012  0.29406577     0.07200
C53         C  0.72513238  0.16340977  0.27726018    -0.05900
H54         H  0.73715622  0.21321316  0.27308818     0.07800
H55         H  0.72435351  0.14726260  0.28734811     0.09000
Cu56       Cu  0.71669191  0.20623717  0.19167017     0.44200
Cu57       Cu  0.70328291  0.15226536  0.20642332     0.43200
Cu58       Cu  0.69156361  0.17714697  0.11963775     0.43900
N59         N  0.71555541  0.21539368  0.13687583    -0.34600
N60         N  0.70630082  0.20509206  0.11086594    -0.28900
C61         C  0.71065771  0.21355255  0.07800152    -0.05000
C62         C  0.72342810  0.22973963  0.08357230     0.07300
C63         C  0.72614786  0.23051561  0.12118169     0.01100
H64         H  0.70606928  0.20722155  0.05184853     0.08700
H65         H  0.73603545  0.24037652  0.13589652     0.07800
N66         N  0.68331209  0.14660100  0.13372033    -0.36000
N67         N  0.68796938  0.13747936  0.16511674    -0.28200
C68         C  0.68189363  0.11727510  0.16494315    -0.03500
C69         C  0.67287461  0.11333669  0.13183206     0.05100
C70         C  0.67411583  0.13240028  0.11273673     0.03200
H71         H  0.68462716  0.10613674  0.18688802     0.08300
H72         H  0.66902863  0.13566280  0.08530837     0.07200
N73         N  0.76260449  0.16888044  0.37429126    -0.27200
N74         N  0.75956486  0.18938984  0.37961652    -0.35100
C75         C  0.74896732  0.19682245  0.35175688     0.01100
C76         C  0.74493019  0.18006907  0.32829052     0.07200
C77         C  0.75375651  0.16262790  0.34350109    -0.05900
H78         H  0.74422264  0.21308235  0.34919752     0.07800
H79         H  0.75407252  0.14663168  0.33258344     0.09000
Cu80       Cu  0.76880171  0.20549455  0.42652489     0.44200
Cu81       Cu  0.77956856  0.15044755  0.40770359     0.42000
Cu82       Cu  0.79787114  0.17498505  0.48984357     0.43900
N83         N  0.77587170  0.21554766  0.47955308    -0.34600
N84         N  0.78628766  0.20434812  0.50256060    -0.28900
C85         C  0.78635460  0.21396168  0.53564397    -0.05000
C86         C  0.77537552  0.23202455  0.53353775     0.07300
C87         C  0.76904761  0.23258645  0.49751842     0.01100
H88         H  0.79303785  0.20759343  0.55994653     0.08700
H89         H  0.75932930  0.24387643  0.48576681     0.07800
N90         N  0.80590380  0.14505417  0.47169405    -0.36000
N91         N  0.79895929  0.13599594  0.44188637    -0.28200
C92         C  0.80684011  0.11676126  0.43752973    -0.03500
C93         C  0.81934733  0.11343697  0.46609146     0.05100
C94         C  0.81841938  0.13180382  0.48710672     0.03200
H95         H  0.80392399  0.10625899  0.41470485     0.08300
H96         H  0.82612887  0.13521804  0.51201975     0.07200
N97         N  0.23697913  0.77344325  0.67197444    -0.27200
N98         N  0.25323325  0.76623547  0.65993111    -0.35100
C99         C  0.26470677  0.76315105  0.68874390     0.01100
C100        C  0.25505965  0.76823535  0.72041487     0.07200
C101        C  0.23752181  0.77462719  0.70889048    -0.05900
H102        H  0.27884861  0.75714260  0.68682258     0.07800
H103        H  0.22616108  0.78022086  0.72596635     0.09000
Cu104      Cu  0.25856765  0.75916834  0.60534004     0.44200
Cu105      Cu  0.21534396  0.78277539  0.63747943     0.42000
Cu106      Cu  0.22220283  0.77269256  0.54046323     0.43900
N107        N  0.25906165  0.75029437  0.55052348    -0.34600
N108        N  0.24591421  0.75554855  0.52662635    -0.28900
C109        C  0.25000302  0.74683442  0.49384678    -0.05000
C110        C  0.26637277  0.73533375  0.49748474     0.07300
C111        C  0.27172542  0.73782844  0.53374776     0.01100
H112        H  0.24130246  0.74809631  0.46960195     0.08700
H113        H  0.28372818  0.73079395  0.54716752     0.07800
N114        N  0.19992113  0.78992032  0.56138409    -0.36000
N115        N  0.19746588  0.79380154  0.59672406    -0.28200
C116        C  0.18291145  0.80714351  0.60075801    -0.03500
C117        C  0.17568925  0.81186417  0.56622758     0.05100
C118        C  0.18690785  0.80050181  0.54203715     0.03200
H119        H  0.17879524  0.81388585  0.62684394     0.08300
H120        H  0.18622793  0.80051349  0.51235026     0.07200
N121        N  0.28036581  0.76984216  0.80700559    -0.27200
N122        N  0.26381958  0.76317222  0.81852997    -0.35100
C123        C  0.25222903  0.76166397  0.78947411     0.01100
C124        C  0.26207486  0.76723476  0.75827558     0.07200
C125        C  0.27986010  0.77220554  0.77028279    -0.05900
H126        H  0.23778091  0.75663865  0.79091781     0.07800
H127        H  0.29138262  0.77790993  0.75375657     0.09000
Cu128      Cu  0.25768344  0.75561439  0.87289664     0.44200
Cu129      Cu  0.30234271  0.77811596  0.84140166     0.42000
Cu130      Cu  0.29357256  0.77020368  0.93728531     0.43900
N131        N  0.25644694  0.74828396  0.92862019    -0.34600
N132        N  0.26956683  0.75422043  0.95208092    -0.28900
C133        C  0.26541813  0.74676709  0.98564377    -0.05000
C134        C  0.24900224  0.73530680  0.98326716     0.07300
C135        C  0.24365805  0.73654509  0.94669844     0.01100
H136        H  0.27423635  0.74868140  0.00959665     0.08700
H137        H  0.23169305  0.72899977  0.93398649     0.07800
N138        N  0.31646060  0.78654745  0.91764720    -0.36000
N139        N  0.31976660  0.78969015  0.88239192    -0.28200
C140        C  0.33430233  0.80312028  0.87898564    -0.03500
C141        C  0.34051074  0.80865531  0.91392133     0.05100
C142        C  0.32882754  0.79767749  0.93763161     0.03200
H143        H  0.33897017  0.80956488  0.85303511     0.08300
H144        H  0.32862397  0.79850829  0.96731615     0.07200
C145        C  0.89772734  0.94600780  0.52887321     0.80300
N146        N  0.91639964  0.94523571  0.52251061    -0.78000
C147        C  0.92595375  0.96273736  0.51138290     0.82700
N148        N  0.91648206  0.98127658  0.50636706    -0.78000
C149        C  0.89774185  0.98241011  0.51264801     0.82800
N150        N  0.88853484  0.96471042  0.52422175    -0.79700
C151        C  0.09553119  0.97455601  0.48364990     0.80300
N152        N  0.07657610  0.97474940  0.48554637    -0.78000
C153        C  0.06701880  0.95701427  0.49559988     0.82700
N154        N  0.07656690  0.93891983  0.50386859    -0.78000
C155        C  0.09559453  0.93864454  0.50304229     0.82800
N156        N  0.10483688  0.95652516  0.49278241    -0.79700
N157        N  0.73714862  0.75908093  0.84555365    -0.27200
N158        N  0.74145150  0.73879874  0.84997901    -0.35100
C159        C  0.74976339  0.73157585  0.81922978     0.01100
C160        C  0.75098973  0.74826283  0.79469112     0.07200
C161        C  0.74293119  0.76542721  0.81223195    -0.05900
H162        H  0.75533304  0.71571113  0.81577398     0.07800
H163        H  0.74145964  0.78140866  0.80165751     0.09000
Cu164      Cu  0.73834443  0.72300353  0.89942106     0.44200
Cu165      Cu  0.72349691  0.77747821  0.88442046     0.42000
Cu166      Cu  0.71475655  0.75296412  0.97136777     0.43900
N167        N  0.73810586  0.71419582  0.95419252    -0.34600
N168        N  0.72937315  0.72497626  0.98025624    -0.28900
C169        C  0.73319521  0.71606698  0.01297571    -0.05000
C170        C  0.74504079  0.69903212  0.00722614     0.07300
C171        C  0.74786599  0.69827256  0.96968325     0.01100
H172        H  0.72841376  0.72218210  0.03912899     0.08700
H173        H  0.75682194  0.68741185  0.95479994     0.07800
N174        N  0.70419981  0.78252491  0.95714675    -0.36000
N175        N  0.70774993  0.79172812  0.92537971    -0.28200
C176        C  0.69932015  0.81079949  0.92456959    -0.03500
C177        C  0.68988622  0.81400209  0.95761395     0.05100
C178        C  0.69340849  0.79547805  0.97747189     0.03200
H179        H  0.70005527  0.82139766  0.90127255     0.08300
H180        H  0.68868844  0.79133328  0.00466146     0.07200
N181        N  0.77524080  0.75959679  0.70952461    -0.27200
N182        N  0.77120053  0.73932106  0.70430702    -0.35100
C183        C  0.76214988  0.73189206  0.73408329     0.01100
C184        C  0.76021168  0.74847439  0.75875616     0.07200
C185        C  0.76860596  0.76576261  0.74232274    -0.05900
H186        H  0.75692187  0.71584919  0.73705251     0.07800
H187        H  0.77003973  0.78160306  0.75357085     0.09000
Cu188      Cu  0.77688907  0.72377272  0.65543269     0.44200
Cu189      Cu  0.79035617  0.77784743  0.67296004     0.42000
Cu190      Cu  0.80436121  0.75327484  0.58794355     0.43900
N191        N  0.78085716  0.71424116  0.60152627    -0.34600
N192        N  0.79088459  0.72474555  0.57698633    -0.28900
C193        C  0.78912220  0.71511082  0.54411254    -0.05000
C194        C  0.77730286  0.69787757  0.54823640     0.07300
C195        C  0.77237675  0.69778645  0.58492957     0.01100
H196        H  0.79521052  0.72087983  0.51880444     0.08700
H197        H  0.76270781  0.68709670  0.59835265     0.07800
N198        N  0.81337985  0.78313135  0.60457134    -0.36000
N199        N  0.80799518  0.79220373  0.63554795    -0.28200
C200        C  0.81579441  0.81158213  0.63810647    -0.03500
C201        C  0.82668962  0.81495355  0.60717840     0.05100
C202        C  0.82472994  0.79655157  0.58648116     0.03200
H203        H  0.81325924  0.82253174  0.66046982     0.08300
H204        H  0.83105172  0.79313812  0.56013163     0.07200
C205        C  0.61225146  0.94420992  0.01837403     0.80300
N206        N  0.59341000  0.94412880  0.01284950    -0.78000
C207        C  0.58288757  0.96153274  0.02120584     0.82700
N208        N  0.59149556  0.97913407  0.03488026    -0.78000
C209        C  0.61028836  0.97946800  0.04050796     0.82800
N210        N  0.62045510  0.96187841  0.03244362    -0.79700
C211        C  0.41459329  0.93999747  0.97224983     0.80300
N212        N  0.40429616  0.95774259  0.97821594    -0.78000
C213        C  0.41243013  0.97657101  0.98686621     0.82700
N214        N  0.43143084  0.97750639  0.98956038    -0.78000
C215        C  0.44206621  0.95979135  0.98396324     0.82800
N216        N  0.43347551  0.94109698  0.97557787    -0.79700
N217        N  0.26666342  0.26310889  0.66047629    -0.27200
N218        N  0.26223697  0.24289898  0.65539069    -0.35100
C219        C  0.25443497  0.23531734  0.68642962     0.01100
C220        C  0.25366663  0.25165408  0.71188182     0.07200
C221        C  0.26146816  0.26902564  0.69449140    -0.05900
H222        H  0.24912397  0.21933442  0.68975906     0.07800
H223        H  0.26336816  0.28478672  0.70580913     0.09000
Cu224      Cu  0.26566284  0.22721982  0.60532678     0.44200
Cu225      Cu  0.28035905  0.28167585  0.62185561     0.42000
Cu226      Cu  0.29211545  0.25595194  0.53634488     0.43900
N227        N  0.26895455  0.21683754  0.55124268    -0.34600
N228        N  0.27886651  0.22718885  0.52633704    -0.28900
C229        C  0.27735471  0.21712981  0.49379842    -0.05000
C230        C  0.26579439  0.19971440  0.49827761     0.07300
C231        C  0.26074576  0.19999607  0.53505057     0.01100
H232        H  0.28347537  0.22270747  0.46839373     0.08700
H233        H  0.25128909  0.18918736  0.54877250     0.07800
N234        N  0.30190187  0.28579580  0.55117837    -0.36000
N235        N  0.29710266  0.29552135  0.58196647    -0.28200
C236        C  0.30578166  0.31447089  0.58355146    -0.03500
C237        C  0.31664819  0.31676403  0.55228919     0.05100
C238        C  0.31386911  0.29822363  0.53247304     0.03200
H239        H  0.30481022  0.32536621  0.60648352     0.08300
H240        H  0.32014322  0.29401930  0.50641596     0.07200
N241        N  0.23044653  0.26066617  0.79943209    -0.27200
N242        N  0.23509592  0.24043927  0.80309551    -0.35100
C243        C  0.24408651  0.23402287  0.77252387     0.01100
C244        C  0.24537810  0.25116040  0.74885232     0.07200
C245        C  0.23668638  0.26779863  0.76684345    -0.05900
H246        H  0.24945692  0.21815451  0.76806202     0.07800
H247        H  0.23452566  0.28373671  0.75653002     0.09000
Cu248      Cu  0.22953909  0.22304491  0.85036815     0.44200
Cu249      Cu  0.21447462  0.27709152  0.83754642     0.42000
Cu250      Cu  0.20071382  0.24837297  0.91969028     0.43900
N251        N  0.22462834  0.21042985  0.90224413    -0.34600
N252        N  0.21396076  0.21953609  0.92739876    -0.28900
C253        C  0.21516427  0.20843892  0.95890992    -0.05000
C254        C  0.22729343  0.19163567  0.95337616     0.07300
C255        C  0.23296888  0.19334287  0.91714650     0.01100
H256        H  0.20863376  0.21306655  0.98450485     0.08700
H257        H  0.24320123  0.18359612  0.90317585     0.07800
N258        N  0.19180194  0.27878081  0.90736247    -0.36000
N259        N  0.19688364  0.28929590  0.87759140    -0.28200
C260        C  0.18911210  0.30872768  0.87839855    -0.03500
C261        C  0.17862747  0.31060960  0.91028612     0.05100
C262        C  0.18076377  0.29126219  0.92801130     0.03200
H263        H  0.19103177  0.32060299  0.85725713     0.08300
H264        H  0.17528949  0.28668277  0.95452669     0.07200
N265        N  0.28310060  0.65998874  0.30869017    -0.27200
N266        N  0.27828162  0.68011286  0.31309926    -0.35100
C267        C  0.27015203  0.68715461  0.28205094     0.01100
C268        C  0.26959406  0.67051774  0.25727605     0.07200
C269        C  0.27784180  0.65353204  0.27503104    -0.05900
H270        H  0.26429356  0.70287242  0.27846338     0.07800
H271        H  0.27983860  0.63763992  0.26434997     0.09000
Cu272      Cu  0.28085989  0.69598407  0.36268118     0.44200
Cu273      Cu  0.29705032  0.64241460  0.34813507     0.42000
Cu274      Cu  0.30684841  0.66876266  0.43426308     0.43900
N275        N  0.28165210  0.70583392  0.41697370    -0.34600
N276        N  0.29139049  0.69615135  0.44295081    -0.28900
C277        C  0.28797212  0.70566038  0.47536725    -0.05000
C278        C  0.27532462  0.72192741  0.46950797     0.07300
C279        C  0.27160241  0.72159061  0.43223170     0.01100
H280        H  0.29355108  0.70041529  0.50148295     0.08700
H281        H  0.26189467  0.73162264  0.41741958     0.07800
N282        N  0.31807141  0.63959828  0.41973643    -0.36000
N283        N  0.31396956  0.62972213  0.38869520    -0.28200
C284        C  0.32286091  0.61092833  0.38791566    -0.03500
C285        C  0.33318593  0.60888590  0.41992025     0.05100
C286        C  0.32976951  0.62737053  0.43951284     0.03200
H287        H  0.32197701  0.59966221  0.36550098     0.08300
H288        H  0.33494546  0.63143306  0.46656228     0.07200
N289        N  0.24507378  0.65958194  0.17212937    -0.27200
N290        N  0.24878009  0.67997683  0.16751196    -0.35100
C291        C  0.25816308  0.68714661  0.19712035     0.01100
C292        C  0.26068115  0.67028069  0.22099596     0.07200
C293        C  0.25229702  0.65305915  0.20426495    -0.05900
H294        H  0.26296739  0.70331638  0.20076903     0.07800
H295        H  0.25093470  0.63714791  0.21520395     0.09000
Cu296      Cu  0.24173454  0.69619487  0.11981313     0.44200
Cu297      Cu  0.22868005  0.64219675  0.13661433     0.42000
Cu298      Cu  0.21309834  0.66769421  0.05300427     0.43900
N299        N  0.23705393  0.70634369  0.06628688    -0.34600
N300        N  0.22662774  0.69611463  0.04197647    -0.28900
C301        C  0.22834376  0.70565221  0.00903485    -0.05000
C302        C  0.24060267  0.72251124  0.01276360     0.07300
C303        C  0.24578136  0.72251787  0.04939539     0.01100
H304        H  0.22220022  0.69980383  0.98379285     0.08700
H305        H  0.25599332  0.73274256  0.06240966     0.07800
N306        N  0.20346681  0.63838385  0.07076169    -0.36000
N307        N  0.20926676  0.62919498  0.10133009    -0.28200
C308        C  0.20055944  0.61045595  0.10529298    -0.03500
C309        C  0.18882816  0.60742626  0.07542218     0.05100
C310        C  0.19098003  0.62558663  0.05421656     0.03200
H311        H  0.20259661  0.60005677  0.12857787     0.08300
H312        H  0.18427930  0.62910174  0.02825770     0.07200
N313        N  0.74169112  0.27779175  0.74438438    -0.27200
N314        N  0.75687739  0.26781109  0.73274319    -0.35100
C315        C  0.76668947  0.26108922  0.76219013     0.01100
C316        C  0.75699616  0.26674534  0.79363215     0.07200
C317        C  0.74122497  0.27722567  0.78132491    -0.05900
H318        H  0.77974567  0.25244032  0.76079846     0.07800
H319        H  0.73047062  0.28450080  0.79802686     0.09000
Cu320      Cu  0.76307028  0.26277665  0.67725136     0.44200
Cu321      Cu  0.72287858  0.29351489  0.71044767     0.42000
Cu322      Cu  0.73322359  0.29077489  0.61382201     0.43900
N323        N  0.76412798  0.25844804  0.62029539    -0.34600
N324        N  0.75319624  0.26893832  0.59726378    -0.28900
C325        C  0.75609669  0.26176184  0.56290374    -0.05000
C326        C  0.76944439  0.24587630  0.56420145     0.07300
C327        C  0.77427065  0.24421803  0.60104495     0.01100
H328        H  0.74839702  0.26706238  0.53899777     0.08700
H329        H  0.78386282  0.23291812  0.61316452     0.07800
N330        N  0.71232965  0.30973774  0.63569380    -0.36000
N331        N  0.70820366  0.31057878  0.67103171    -0.28200
C332        C  0.69371386  0.32396357  0.67588786    -0.03500
C333        C  0.68843459  0.33195756  0.64182674     0.05100
C334        C  0.70062918  0.32249910  0.61711468     0.03200
H335        H  0.68735400  0.32720977  0.70223889     0.08300
H336        H  0.70108325  0.32474800  0.58766096     0.07200
N337        N  0.77869711  0.26202041  0.88384397    -0.27200
N338        N  0.76088453  0.25945747  0.89259708    -0.35100
C339        C  0.75051777  0.26028600  0.86175214     0.01100
C340        C  0.76238472  0.26309090  0.83216147     0.07200
C341        C  0.78015456  0.26401574  0.84709526    -0.05900
H342        H  0.73542083  0.25925582  0.86099232     0.07800
H343        H  0.79303666  0.26731502  0.83261349     0.09000
Cu344      Cu  0.75127173  0.25546497  0.94611994     0.44200
Cu345      Cu  0.79962907  0.26706902  0.92253334     0.42000
Cu346      Cu  0.78340280  0.27094712  0.01673211     0.43900
N347        N  0.74598877  0.25114873  0.00183292    -0.34600
N348        N  0.75771955  0.25743426  0.02773185    -0.28900
C349        C  0.75103977  0.25164845  0.06074026    -0.05000
C350        C  0.73436769  0.24097635  0.05540193     0.07300
C351        C  0.73157062  0.24092094  0.01772147     0.01100
H352        H  0.75832547  0.25401175  0.08649641     0.08700
H353        H  0.72025483  0.23338822  0.00286868     0.07800
N354        N  0.80908176  0.28190134  0.99912654    -0.36000
N355        N  0.81532211  0.28001628  0.96512048    -0.28200
C356        C  0.83159743  0.29059317  0.96224998    -0.03500
C357        C  0.83582099  0.29962201  0.99610625     0.05100
C358        C  0.82115087  0.29368046  0.01873867     0.03200
H359        H  0.83917486  0.29258978  0.93677708     0.08300
H360        H  0.81855454  0.29886649  0.04660246     0.07200
C361        C  0.40288285  0.43985627  0.49874193     0.80300
N362        N  0.42189945  0.43909376  0.50030737    -0.78000
C363        C  0.43221845  0.45711685  0.49586013     0.82700
N364        N  0.42332398  0.47583913  0.48949731    -0.78000
C365        C  0.40439943  0.47684999  0.48832708     0.82800
N366        N  0.39430660  0.45878231  0.49264000    -0.79700
C367        C  0.60059459  0.44434631  0.55022799     0.80300
N368        N  0.58199026  0.44250135  0.54322977    -0.78000
C369        C  0.57272694  0.45784210  0.52404788     0.82700
N370        N  0.58241215  0.47502066  0.51143631    -0.78000
C371        C  0.60111170  0.47666567  0.51741829     0.82800
N372        N  0.60995047  0.46138215  0.53698261    -0.79700
N373        N  0.74074463  0.64515513  0.34486655    -0.27200
N374        N  0.75641412  0.65429569  0.35605064    -0.35100
C375        C  0.76738416  0.65799809  0.32679653     0.01100
C376        C  0.75798404  0.65127797  0.29580216     0.07200
C377        C  0.74113718  0.64328719  0.30805042    -0.05900
H378        H  0.78111488  0.66518484  0.32801349     0.07800
H379        H  0.73033279  0.63584663  0.29165540     0.09000
Cu380      Cu  0.76218470  0.66208295  0.41011629     0.44200
Cu381      Cu  0.72057136  0.63329620  0.38013818     0.42000
Cu382      Cu  0.73027376  0.64047291  0.47653954     0.43900
N383        N  0.76324055  0.66951047  0.46546495    -0.34600
N384        N  0.75163175  0.66124928  0.48980603    -0.28900
C385        C  0.75525147  0.66963771  0.52299333    -0.05000
C386        C  0.76975380  0.68398872  0.51933891     0.07300
C387        C  0.77450161  0.68355422  0.48249219     0.01100
H388        H  0.74743004  0.66608103  0.54766821     0.08700
H389        H  0.78502824  0.69305868  0.46889225     0.07800
N390        N  0.70880034  0.62164800  0.45680432    -0.36000
N391        N  0.70499488  0.61927150  0.42150691    -0.28200
C392        C  0.69072240  0.60552406  0.41779905    -0.03500
C393        C  0.68522707  0.59895921  0.45251366     0.05100
C394        C  0.69707456  0.60950452  0.47652432     0.03200
H395        H  0.68540678  0.59998306  0.39165665     0.08300
H396        H  0.69739324  0.60820794  0.50616632     0.07200
N397        N  0.78269785  0.64637491  0.20938450    -0.27200
N398        N  0.76697442  0.65527292  0.19803928    -0.35100
C399        C  0.75567387  0.65834527  0.22706403     0.01100
C400        C  0.76495912  0.65142839  0.25808511     0.07200
C401        C  0.78205095  0.64402290  0.24606317    -0.05900
H402        H  0.74185478  0.66530185  0.22570063     0.07800
H403        H  0.79287626  0.63666342  0.26249887     0.09000
Cu404      Cu  0.76199943  0.66340288  0.14390352     0.44200
Cu405      Cu  0.80300984  0.63512369  0.17403284     0.42000
Cu406      Cu  0.79442809  0.64262852  0.07669538     0.43900
N407        N  0.76131309  0.67132856  0.08881168    -0.34600
N408        N  0.77297622  0.66356109  0.06403549    -0.28900
C409        C  0.76880833  0.67193322  0.03101771    -0.05000
C410        C  0.75391559  0.68572742  0.03542571     0.07300
C411        C  0.74955698  0.68500976  0.07237845     0.01100
H412        H  0.77631088  0.66854263  0.00588139     0.08700
H413        H  0.73870070  0.69382439  0.08638717     0.07800
N414        N  0.81444379  0.62207754  0.09761730    -0.36000
N415        N  0.81768899  0.61961474  0.13310588    -0.28200
C416        C  0.83037524  0.60411265  0.13778501    -0.03500
C417        C  0.83553333  0.59642566  0.10353625     0.05100
C418        C  0.82506920  0.60823858  0.07874208     0.03200
H419        H  0.83458415  0.59813174  0.16436835     0.08300
H420        H  0.82478297  0.60656114  0.04915865     0.07200
C421        C  0.91338897  0.46501238  0.05599630     0.80300
N422        N  0.90509216  0.44573374  0.05239930    -0.78000
C423        C  0.91534362  0.42802081  0.04545469     0.82700
N424        N  0.93422844  0.42968037  0.04258781    -0.78000
C425        C  0.94284973  0.44879816  0.04671365     0.82800
N426        N  0.93229398  0.46635176  0.05331768    -0.79700
C427        C  0.11107650  0.47826472  0.01390512     0.80300
N428        N  0.09214276  0.47789333  0.01667907    -0.78000
C429        C  0.08236790  0.46000195  0.00847621     0.82700
N430        N  0.09171951  0.44226561  0.99778459    -0.78000
C431        C  0.11067124  0.44224972  0.99544992     0.82800
N432        N  0.12018446  0.46033981  0.00333500    -0.79700
C433        C  0.03119093  0.44518760  0.99778616    -0.27500
C434        C  0.02281868  0.45777144  0.02506923     0.02100
C435        C  0.03408158  0.47151375  0.04620047     0.30100
C436        C  0.05340040  0.47238313  0.03996853    -0.19300
C437        C  0.06181760  0.45953465  0.01306517    -0.28700
C438        C  0.05047501  0.44599920  0.99164212     0.44200
C439        C  0.00242872  0.45577502  0.03175800     0.05400
O440        O  0.02651342  0.48307448  0.07453069    -0.57300
H441        H  0.06188297  0.48268637  0.05707093     0.18300
O442        O  0.05804271  0.43349166  0.96457867    -0.64000
H443        H  0.02270085  0.43464927  0.98112569     0.16800
C444        C  0.99054914  0.47361358  0.03115938     0.29000
C445        C  0.97132756  0.47110717  0.03677003    -0.24900
C446        C  0.96344645  0.45085713  0.04232166    -0.24100
C447        C  0.97543325  0.43300032  0.04300050     0.40500
C448        C  0.99467347  0.43557546  0.03763675    -0.26600
O449        O  0.99747598  0.49352422  0.02413906    -0.58500
H450        H  0.96253112  0.48511315  0.03586204     0.16100
O451        O  0.96860155  0.41291868  0.04881366    -0.59900
H452        H  0.00362854  0.42168326  0.03821470     0.14500
H453        H  0.05808989  0.44250281  0.94223555     0.46400
H454        H  0.99767973  0.49474500  0.99695361     0.41800
H455        H  0.96872128  0.41102178  0.07586060     0.45200
H456        H  0.02792687  0.49820375  0.06733739     0.36700
C457        C  0.87214960  0.50320083  0.06404820    -0.27500
C458        C  0.88119249  0.52230114  0.07305244     0.02100
C459        C  0.90082679  0.52243304  0.07632661     0.30100
C460        C  0.91101115  0.50370117  0.07106394    -0.19300
C461        C  0.90201168  0.48451531  0.06196846    -0.28700
C462        C  0.88231416  0.48448240  0.05835893     0.44200
C463        C  0.86996960  0.54179778  0.07982563     0.05400
O464        O  0.91026390  0.54083947  0.08436802    -0.57300
H465        H  0.92607420  0.50431084  0.07402093     0.18300
O466        O  0.87279578  0.46645418  0.04835899    -0.64000
H467        H  0.85705038  0.50269123  0.06178201     0.16800
C468        C  0.85591152  0.54833402  0.05510518     0.29000
C469        C  0.84495978  0.56618150  0.06303684    -0.24900
C470        C  0.84786142  0.57803145  0.09532287    -0.24100
C471        C  0.86227686  0.57180375  0.11955075     0.40500
C472        C  0.87306219  0.55378558  0.11179928    -0.26600
O473        O  0.85272525  0.53739771  0.02307784    -0.58500
H474        H  0.83397989  0.57052511  0.04396701     0.16100
O475        O  0.86646055  0.58363416  0.15015302    -0.59900
H476        H  0.88375777  0.54902595  0.13122732     0.14500
H477        H  0.86813003  0.46029544  0.07172832     0.46400
H478        H  0.86164861  0.54349439  0.00501676     0.41800
H479        H  0.86238351  0.57488339  0.17138948     0.45200
H480        H  0.91259700  0.54768570  0.06028060     0.36700
C481        C  0.64182665  0.51035536  0.48577263    -0.27500
C482        C  0.63397644  0.53074067  0.48588126     0.02100
C483        C  0.61478084  0.53317613  0.49341365     0.30100
C484        C  0.60387555  0.51533672  0.50209794    -0.19300
C485        C  0.61199381  0.49501706  0.50376174    -0.28700
C486        C  0.63104149  0.49260338  0.49449219     0.44200
C487        C  0.64622774  0.54922489  0.47887045     0.05400
O488        O  0.60671447  0.55295025  0.49348975    -0.57300
H489        H  0.58926898  0.51751734  0.50901056     0.18300
O490        O  0.63935611  0.47295377  0.49415473    -0.64000
H491        H  0.65647963  0.50821814  0.47915876     0.16800
C492        C  0.66190473  0.55304314  0.50133393     0.29000
C493        C  0.67416593  0.56964654  0.49297556    -0.24900
C494        C  0.67124098  0.58247945  0.46192703    -0.24100
C495        C  0.65522638  0.57899111  0.44002193     0.40500
C496        C  0.64287177  0.56244890  0.44858520    -0.26600
O497        O  0.66517396  0.54077458  0.53185005    -0.58500
H498        H  0.68629822  0.57203284  0.51032733     0.16100
O499        O  0.65146741  0.59161763  0.41022653    -0.59900
H500        H  0.63084205  0.55965760  0.43110702     0.14500
H501        H  0.63680981  0.46712289  0.46933170     0.46400
H502        H  0.67549875  0.53104640  0.52484180     0.41800
H503        H  0.64426336  0.60381965  0.42017781     0.45200
H504        H  0.60871142  0.55853402  0.51874334     0.36700
C505        C  0.48298590  0.47392701  0.50779255    -0.27500
C506        C  0.49251980  0.45492858  0.50050489     0.02100
C507        C  0.48215452  0.43655366  0.49183825     0.30100
C508        C  0.46256202  0.43737913  0.49074441    -0.19300
C509        C  0.45297545  0.45648115  0.49776734    -0.28700
C510        C  0.46346941  0.47487925  0.50630318     0.44200
C511        C  0.51319881  0.45444122  0.50392546     0.05400
O512        O  0.49103756  0.41773415  0.48429620    -0.57300
H513        H  0.45487875  0.42307151  0.48391408     0.18300
O514        O  0.45482230  0.49368537  0.51499145    -0.64000
H515        H  0.49071142  0.48807087  0.51543964     0.16800
C516        C  0.52446513  0.46903179  0.48474877     0.29000
C517        C  0.54377811  0.46967547  0.49112597    -0.24900
C518        C  0.55227397  0.45597181  0.51675983    -0.24100
C519        C  0.54093110  0.44096731  0.53524467     0.40500
C520        C  0.52163901  0.44029123  0.52863651    -0.26600
O521        O  0.51674464  0.48238860  0.45906915    -0.58500
H522        H  0.55207577  0.48108864  0.47596926     0.16100
O523        O  0.54838419  0.42708417  0.56033373    -0.59900
H524        H  0.51313012  0.42909335  0.54384583     0.14500
H525        H  0.45552062  0.50241237  0.49234465     0.46400
H526        H  0.51680621  0.49668645  0.47057161     0.41800
H527        H  0.54723340  0.43435482  0.58444321     0.45200
H528        H  0.49373109  0.41818033  0.45755852     0.36700
C529        C  0.86833580  0.33684499  0.04812960    -0.27500
C530        C  0.87477499  0.34992691  0.01966607     0.02100
C531        C  0.86976484  0.34519618  0.98316878     0.30100
C532        C  0.85775740  0.32818512  0.97570993    -0.19300
C533        C  0.85048774  0.31565531  0.00432376    -0.28700
C534        C  0.85645701  0.31969718  0.04070634     0.44200
C535        C  0.88575928  0.36921310  0.02834313     0.05400
O536        O  0.87593120  0.35763388  0.95469902    -0.57300
H537        H  0.85350627  0.32549136  0.94753437     0.18300
O538        O  0.85067429  0.30718214  0.06934937    -0.64000
H539        H  0.87238308  0.34010418  0.07628530     0.16800
C540        C  0.87799171  0.38548635  0.05000344     0.29000
C541        C  0.88789533  0.40436806  0.05562564    -0.24900
C542        C  0.90575050  0.40732434  0.04030377    -0.24100
C543        C  0.91368473  0.39074929  0.01923957     0.40500
C544        C  0.90366977  0.37190440  0.01341470    -0.26600
O545        O  0.86029691  0.38352061  0.06413746    -0.58500
H546        H  0.88146552  0.41680571  0.07189221     0.16100
O547        O  0.93095635  0.39295091  0.00335261    -0.59900
H548        H  0.90978421  0.35945461  0.99670309     0.14500
H549        H  0.85923728  0.29473761  0.06917140     0.46400
H550        H  0.86210278  0.37983070  0.09042764     0.41800
H551        H  0.92846416  0.39832243  0.97818965     0.45200
H552        H  0.86680647  0.36947929  0.95304143     0.36700
C553        C  0.63913481  0.41493099  0.60103878    -0.27500
C554        C  0.63265655  0.39394967  0.59958788     0.02100
C555        C  0.61484350  0.38977521  0.58473066     0.30100
C556        C  0.60410160  0.40646735  0.57023450    -0.19300
C557        C  0.61106207  0.42736219  0.56968989    -0.28700
C558        C  0.62860988  0.43153942  0.58612800     0.44200
C559        C  0.64527652  0.37664613  0.61170004     0.05400
O560        O  0.60776225  0.36949989  0.58486663    -0.57300
H561        H  0.59058716  0.40288095  0.55826993     0.18300
O562        O  0.63556587  0.45183575  0.58820393    -0.64000
H563        H  0.65274800  0.41838107  0.61272973     0.16800
C564        C  0.65170304  0.36136916  0.58648968     0.29000
C565        C  0.66541505  0.34673360  0.59706831    -0.24900
C566        C  0.67304061  0.34697670  0.63271802    -0.24100
C567        C  0.66630852  0.36212074  0.65817743     0.40500
C568        C  0.65254236  0.37675297  0.64754188    -0.26600
O569        O  0.64564671  0.36162053  0.55068307    -0.58500
H570        H  0.67021866  0.33530764  0.57692660     0.16100
O571        O  0.67351528  0.36339343  0.69303301    -0.59900
H572        H  0.64787197  0.38863108  0.66706863     0.14500
H573        H  0.64511589  0.45275108  0.56858539     0.46400
H574        H  0.63816822  0.34846978  0.54759355     0.41800
H575        H  0.68401797  0.37364195  0.69129523     0.45200
H576        H  0.60670081  0.36531703  0.55865311     0.36700
C577        C  0.12409830  0.53427156  0.04490646    -0.27500
C578        C  0.14338101  0.53445636  0.03810927     0.02100
C579        C  0.15190398  0.51632810  0.02288952     0.30100
C580        C  0.14122071  0.49828064  0.01520621    -0.19300
C581        C  0.12186403  0.49789185  0.02219514    -0.28700
C582        C  0.11333888  0.51624496  0.03717083     0.44200
C583        C  0.15462348  0.55333102  0.04812761     0.05400
O584        O  0.17070624  0.51608650  0.01543640    -0.57300
H585        H  0.14821965  0.48457074  0.00359092     0.18300
O586        O  0.09455274  0.51683976  0.04460989    -0.64000
H587        H  0.11739209  0.54802824  0.05703531     0.16800
C588        C  0.15011165  0.57366456  0.03472193     0.29000
C589        C  0.16126358  0.59112837  0.04411865    -0.24900
C590        C  0.17694868  0.58871031  0.06707205    -0.24100
C591        C  0.18129458  0.56827360  0.08070710     0.40500
C592        C  0.17009403  0.55090158  0.07140934    -0.26600
O593        O  0.13533438  0.57644284  0.01112567    -0.58500
H594        H  0.15756340  0.60660385  0.03333962     0.16100
O595        O  0.19669330  0.56484010  0.10235688    -0.59900
H596        H  0.17361006  0.53536488  0.08224473     0.14500
H597        H  0.09339902  0.51219027  0.07052836     0.46400
H598        H  0.12539824  0.58325554  0.02603308     0.41800
H599        H  0.20709510  0.56214367  0.08493985     0.45200
H600        H  0.17178538  0.52070963  0.98946346     0.36700
C601        C  0.37132826  0.57473066  0.46257551    -0.27500
C602        C  0.36543466  0.55434304  0.45216335     0.02100
C603        C  0.34919564  0.55202237  0.43070921     0.30100
C604        C  0.33892502  0.56991688  0.42032615    -0.19300
C605        C  0.34457045  0.59035956  0.43114162    -0.28700
C606        C  0.36101643  0.59269834  0.45224617     0.44200
C607        C  0.37613398  0.53541864  0.46373828     0.05400
O608        O  0.34325149  0.53227675  0.41976166    -0.57300
H609        H  0.32634369  0.56773307  0.40415807     0.18300
O610        O  0.36730553  0.61242178  0.46248044    -0.64000
H611        H  0.38388394  0.57668230  0.47892830     0.16800
C612        C  0.39449720  0.53195846  0.45128813     0.29000
C613        C  0.40378128  0.51307001  0.46029783    -0.24900
C614        C  0.39487221  0.49734443  0.48142672    -0.24100
C615        C  0.37672602  0.50128649  0.49503299     0.40500
C616        C  0.36748680  0.52013632  0.48596106    -0.26600
O617        O  0.40326186  0.54664564  0.42942897    -0.58500
H618        H  0.41774778  0.51044038  0.44971629     0.16100
O619        O  0.36785420  0.48685666  0.51723188    -0.59900
H620        H  0.35342675  0.52279096  0.49606108     0.14500
H621        H  0.37493408  0.61747430  0.44148393     0.46400
H622        H  0.39904174  0.54339357  0.40402960     0.41800
H623        H  0.37234825  0.49002285  0.54239891     0.45200
H624        H  0.35016014  0.52929333  0.39671154     0.36700
C625        C  0.14371570  0.34644667  0.95929207    -0.27500
C626        C  0.14935966  0.36654008  0.94697616     0.02100
C627        C  0.16445574  0.36817520  0.92241894     0.30100
C628        C  0.17381278  0.34987276  0.91079825    -0.19300
C629        C  0.16828963  0.32965531  0.92315797    -0.28700
C630        C  0.15295545  0.32808048  0.94747504     0.44200
C631        C  0.13938141  0.38572542  0.95976228     0.05400
O632        O  0.17011541  0.38760435  0.90946375    -0.57300
H633        H  0.18555258  0.35161344  0.89228696     0.18300
O634        O  0.14663160  0.30874033  0.95952019    -0.64000
H635        H  0.13207811  0.34500495  0.97818158     0.16800
C636        C  0.12009378  0.38816947  0.95356170     0.29000
C637        C  0.11092743  0.40649615  0.96568381    -0.24900
C638        C  0.12077349  0.42277802  0.98382028    -0.24100
C639        C  0.14014465  0.42014339  0.99026266     0.40500
C640        C  0.14925580  0.40177341  0.97812420    -0.26600
O641        O  0.11013449  0.37287528  0.93512961    -0.58500
H642        H  0.09610052  0.40808205  0.96022058     0.16100
O643        O  0.15036264  0.43529944  0.00849414    -0.59900
H644        H  0.16409456  0.39996016  0.98332487     0.14500
H645        H  0.13747931  0.30402905  0.94070703     0.46400
H646        H  0.11151982  0.37645871  0.90868252     0.41800
H647        H  0.14981485  0.43118630  0.03473037     0.45200
H648        H  0.16191065  0.39054362  0.88804899     0.36700
C649        C  0.33731023  0.37213572  0.54285020    -0.27500
C650        C  0.35451558  0.36775024  0.52592022     0.02100
C651        C  0.35913092  0.34656022  0.51745730     0.30100
C652        C  0.34660931  0.33014543  0.52585332    -0.19300
C653        C  0.32945396  0.33448931  0.54310664    -0.28700
C654        C  0.32483291  0.35573440  0.55146062     0.44200
C655        C  0.36741397  0.38547655  0.51705480     0.05400
O656        O  0.37580980  0.34174322  0.50085375    -0.57300
H657        H  0.35045857  0.31392681  0.51931121     0.18300
O658        O  0.30804770  0.36072077  0.56749357    -0.64000
H659        H  0.33356830  0.38837534  0.54952582     0.16800
C660        C  0.36154634  0.40230530  0.49436949     0.29000
C661        C  0.37337033  0.41963700  0.48820588    -0.24900
C662        C  0.39130006  0.42051495  0.50408505    -0.24100
C663        C  0.39735495  0.40335414  0.52606893     0.40500
C664        C  0.38545313  0.38600273  0.53229020    -0.26600
O665        O  0.34419604  0.40202494  0.47826452    -0.58500
H666        H  0.36843419  0.43248983  0.47092736     0.16100
O667        O  0.41458104  0.40364706  0.54265138    -0.59900
H668        H  0.39011779  0.37319244  0.54995037     0.14500
H669        H  0.29919252  0.36254771  0.54677528     0.46400
H670        H  0.34573410  0.39346373  0.45552665     0.41800
H671        H  0.41266448  0.41125078  0.56623888     0.45200
H672        H  0.37337956  0.34306757  0.47410869     0.36700
C673        C  0.53087933  0.97505238  0.02707935    -0.27500
C674        C  0.52300107  0.96032128  0.00253761     0.02100
C675        C  0.53498463  0.94621388  0.98371463     0.30100
C676        C  0.55435751  0.94676607  0.99016038    -0.19300
C677        C  0.56225004  0.96137085  0.01502654    -0.28700
C678        C  0.55020663  0.97566776  0.03343696     0.44200
C679        C  0.50230761  0.96003095  0.99695102     0.05400
O680        O  0.52800043  0.93265109  0.95750178    -0.57300
H681        H  0.56325235  0.93589392  0.97508250     0.18300
O682        O  0.55706375  0.99025047  0.05802046    -0.64000
H683        H  0.52194068  0.98601322  0.04187762     0.16800
C684        C  0.49191260  0.94108372  0.00015409     0.29000
C685        C  0.47249077  0.94130162  0.99525537    -0.24900
C686        C  0.46280212  0.96034591  0.98824222    -0.24100
C687        C  0.47316908  0.97939233  0.98560395     0.40500
C688        C  0.49268404  0.97909842  0.98990449    -0.26600
O689        O  0.50047647  0.92230263  0.00921487    -0.58500
H690        H  0.46493882  0.92646013  0.99794922     0.16100
O691        O  0.46446351  0.99840035  0.97870617    -0.59900
H692        H  0.50036345  0.99387760  0.98754867     0.14500
H693        H  0.55662542  0.98306149  0.08223971     0.46400
H694        H  0.50132116  0.92238893  0.03644833     0.41800
H695        H  0.46491878  0.00012481  0.95165167     0.45200
H696        H  0.53060593  0.91807955  0.96669758     0.36700
C697        C  0.65835678  0.85278931  0.01065891    -0.27500
C698        C  0.65680605  0.86954416  0.98555812     0.02100
C699        C  0.66627960  0.86821529  0.95186073     0.30100
C700        C  0.67693863  0.85022014  0.94344243    -0.19300
C701        C  0.67854914  0.83310862  0.96829700    -0.28700
C702        C  0.66920023  0.83481476  0.00256391     0.44200
C703        C  0.64536208  0.88845105  0.99464918     0.05400
O704        O  0.66510695  0.88441666  0.92674636    -0.57300
H705        H  0.68386219  0.84987023  0.91708394     0.18300
O706        O  0.67029506  0.81910983  0.02848707    -0.64000
H707        H  0.65127214  0.85375126  0.03692424     0.16800
C708        C  0.62591800  0.88681656  0.99968277     0.29000
C709        C  0.61526619  0.90506882  0.00682192    -0.24900
C710        C  0.62379296  0.92515099  0.00977555    -0.24100
C711        C  0.64338859  0.92663735  0.00481966     0.40500
C712        C  0.65393205  0.90840335  0.99735351    -0.26600
O713        O  0.61712775  0.86753972  0.99636360    -0.58500
H714        H  0.60030317  0.90341717  0.01041663     0.16100
O715        O  0.65245547  0.94581355  0.00685281    -0.59900
H716        H  0.66890633  0.90984774  0.99354249     0.14500
H717        H  0.68061620  0.82349806  0.04512439     0.46400
H718        H  0.61565486  0.86227286  0.02194539     0.41800
H719        H  0.65236499  0.95145004  0.98141989     0.45200
H720        H  0.65337153  0.88175589  0.91296665     0.36700
C721        C  0.97646811  0.97623400  0.48640658    -0.27500
C722        C  0.98609386  0.95860576  0.50060706     0.02100
C723        C  0.97585022  0.94228593  0.51773226     0.30100
C724        C  0.95636522  0.94383087  0.52058292    -0.19300
C725        C  0.94663254  0.96154377  0.50663962    -0.28700
C726        C  0.95696811  0.97776058  0.48908481     0.44200
C727        C  0.00685507  0.95797607  0.49885524     0.05400
O728        O  0.98487090  0.92543287  0.53384629    -0.57300
H729        H  0.94894129  0.93120564  0.53457359     0.18300
O730        O  0.94828549  0.99527812  0.47460870    -0.64000
H731        H  0.98413963  0.98892397  0.47309148     0.16800
C732        C  0.01647895  0.94039507  0.48396895     0.29000
C733        C  0.03607077  0.94004278  0.48384234    -0.24900
C734        C  0.04636951  0.95741023  0.49715384    -0.24100
C735        C  0.03675811  0.97518182  0.51127310     0.40500
C736        C  0.01719564  0.97532958  0.51215671    -0.26600
O737        O  0.00689711  0.92369241  0.46872412    -0.58500
H738        H  0.04323734  0.92639958  0.47234862     0.16100
O739        O  0.04634401  0.99236734  0.52484763    -0.59900
H740        H  0.01005748  0.98898470  0.52367801     0.14500
H741        H  0.94577743  0.99160953  0.44856239     0.46400
H742        H  0.00452991  0.92793257  0.44283603     0.41800
H743        H  0.04880946  0.98894695  0.55098932     0.45200
H744        H  0.98116400  0.91273131  0.51930585     0.36700
C745        C  0.88454006  0.88821515  0.54603969    -0.27500
C746        C  0.86766721  0.89043463  0.56517954     0.02100
C747        C  0.86075932  0.91090241  0.57269643     0.30100
C748        C  0.87061405  0.92884236  0.56066269    -0.19300
C749        C  0.88754372  0.92672185  0.54130780    -0.28700
C750        C  0.89447549  0.90608063  0.53414235     0.44200
C751        C  0.85712533  0.87123017  0.57610155     0.05400
O752        O  0.84431273  0.91351455  0.59152479    -0.57300
H753        H  0.86502005  0.94445748  0.56671724     0.18300
O754        O  0.91081737  0.90307793  0.51513603    -0.64000
H755        H  0.88999587  0.87250780  0.54015895     0.16800
C756        C  0.84979004  0.85746740  0.54927294     0.29000
C757        C  0.83991483  0.83928846  0.55983023    -0.24900
C758        C  0.83733501  0.83434334  0.59713698    -0.24100
C759        C  0.84496736  0.84805060  0.62404787     0.40500
C760        C  0.85461557  0.86642697  0.61339356    -0.26600
O761        O  0.85164079  0.86210023  0.51262075    -0.58500
H762        H  0.83404277  0.82920591  0.53862773     0.16100
O763        O  0.84346124  0.84349994  0.66077439    -0.59900
H764        H  0.86043205  0.87679069  0.63427886     0.14500
H765        H  0.90710718  0.90261188  0.48888960     0.46400
H766        H  0.86219330  0.85317645  0.50394088     0.41800
H767        H  0.85397874  0.83368897  0.66615267     0.45200
H768        H  0.83442706  0.91374574  0.57237669     0.36700
C769        C  0.37984551  0.84941627  0.90909713    -0.27500
C770        C  0.37711723  0.86045417  0.94209372     0.02100
C771        C  0.36343457  0.85347464  0.96691325     0.30100
C772        C  0.35205154  0.83620309  0.95788199    -0.19300
C773        C  0.35409867  0.82554689  0.92408297    -0.28700
C774        C  0.36854910  0.83197577  0.90006276     0.44200
C775        C  0.38719651  0.88049591  0.94887710     0.05400
O776        O  0.36057065  0.86402620  0.99942673    -0.57300
H777        H  0.34113230  0.83176844  0.97694868     0.18300
O778        O  0.37163452  0.82160122  0.86749137    -0.64000
H779        H  0.39042298  0.85471033  0.88986395     0.16800
C780        C  0.40571114  0.88072165  0.96175074     0.29000
C781        C  0.41458545  0.90015800  0.96899721    -0.24900
C782        C  0.40520602  0.91956320  0.96320349    -0.24100
C783        C  0.38673827  0.91908585  0.94923104     0.40500
C784        C  0.37788167  0.89968635  0.94261293    -0.26600
O785        O  0.41499412  0.86205304  0.96845865    -0.58500
H786        H  0.42872603  0.90000055  0.97969113     0.16100
O787        O  0.37715845  0.93742712  0.94159335    -0.59900
H788        H  0.36365067  0.89960026  0.93232433     0.14500
H789        H  0.38040304  0.80990757  0.87360324     0.46400
H790        H  0.42103098  0.85827476  0.94478721     0.41800
H791        H  0.38087469  0.94131087  0.91625587     0.45200
H792        H  0.36916440  0.85716161  0.01727266     0.36700
C793        C  0.13602060  0.85235536  0.57318674    -0.27500
C794        C  0.13685383  0.86184906  0.53838516     0.02100
C795        C  0.14922901  0.85362418  0.51195701     0.30100
C796        C  0.16130870  0.83699671  0.52108568    -0.19300
C797        C  0.16128160  0.82805467  0.55653344    -0.28700
C798        C  0.14798978  0.83549682  0.58231208     0.44200
C799        C  0.12598515  0.88136077  0.53050940     0.05400
O800        O  0.15002531  0.86220099  0.47733486    -0.57300
H801        H  0.17114836  0.83168730  0.50048008     0.18300
O802        O  0.14665848  0.82670747  0.61666106    -0.64000
H803        H  0.12644580  0.85844951  0.59371203     0.16800
C804        C  0.10633472  0.88164387  0.53155044     0.29000
C805        C  0.09660488  0.90035686  0.52286863    -0.24900
C806        C  0.10623208  0.91906571  0.51303950    -0.24100
C807        C  0.12604266  0.91866208  0.51281356     0.40500
C808        C  0.13562806  0.89995886  0.52129408    -0.26600
O809        O  0.09651834  0.86365077  0.54044361    -0.58500
H810        H  0.08146756  0.90009276  0.52352273     0.16100
O811        O  0.13633647  0.93629543  0.50383387    -0.59900
H812        H  0.15078285  0.89998596  0.52073195     0.14500
H813        H  0.13843266  0.81413822  0.61359996     0.46400
H814        H  0.09465392  0.85603595  0.51678154     0.41800
H815        H  0.13924922  0.94326440  0.52758265     0.45200
H816        H  0.13946765  0.85565553  0.46374477     0.36700
C817        C  0.88383070  0.03813849  0.48086362    -0.27500
C818        C  0.86583791  0.03997088  0.49579524     0.02100
C819        C  0.85873907  0.02327253  0.51734877     0.30100
C820        C  0.86932313  0.00483721  0.52275214    -0.19300
C821        C  0.88726074  0.00266435  0.50728150    -0.28700
C822        C  0.89456843  0.01977214  0.48655405     0.44200
C823        C  0.85424333  0.05895170  0.48770540     0.05400
O824        O  0.84139329  0.02479241  0.53319109    -0.57300
H825        H  0.86339544  0.99219774  0.53924301     0.18300
O826        O  0.91180832  0.01843603  0.47030572    -0.64000
H827        H  0.88942983  0.05082413  0.46401923     0.16800
C828        C  0.86031620  0.07954295  0.49700231     0.29000
C829        C  0.84886035  0.09711629  0.48969048    -0.24900
C830        C  0.83131603  0.09455199  0.47277210    -0.24100
C831        C  0.82538689  0.07390988  0.46303204     0.40500
C832        C  0.83677329  0.05635670  0.47073199    -0.26600
O833        O  0.87732082  0.08262574  0.51363122    -0.58500
H834        H  0.85378305  0.11281915  0.49714769     0.16100
O835        O  0.80809960  0.07055235  0.44774823    -0.59900
H836        H  0.83192453  0.04059580  0.46338984     0.14500
H837        H  0.92033479  0.02652502  0.48673178     0.46400
H838        H  0.87467591  0.08250949  0.54040107     0.41800
H839        H  0.81052317  0.06718644  0.42151112     0.45200
H840        H  0.84348863  0.03228317  0.55684543     0.36700
C841        C  0.62132346  0.03709452  0.06478416    -0.27500
C842        C  0.63944053  0.03524952  0.07904226     0.02100
C843        C  0.64782612  0.01511097  0.08135769     0.30100
C844        C  0.63812303  0.99712323  0.06904576    -0.19300
C845        C  0.61989066  0.99883072  0.05455494    -0.28700
C846        C  0.61145287  0.01912444  0.05297498     0.44200
C847        C  0.64916406  0.05451091  0.09221770     0.05400
O848        O  0.66549362  0.01286976  0.09554917    -0.57300
H849        H  0.64493220  0.98178278  0.07094820     0.18300
O850        O  0.59381568  0.02176786  0.03890623    -0.64000
H851        H  0.61473293  0.05257582  0.06310418     0.16800
C852        C  0.65532050  0.07012058  0.06742204     0.29000
C853        C  0.66304717  0.08910942  0.08061537    -0.24900
C854        C  0.66476747  0.09289702  0.11862291    -0.24100
C855        C  0.65862479  0.07701850  0.14334534     0.40500
C856        C  0.65112382  0.05795855  0.13001586    -0.26600
O857        O  0.65363953  0.06704319  0.03023723    -0.58500
H858        H  0.66776883  0.10082019  0.06092383     0.16100
O859        O  0.65922926  0.08013125  0.18060915    -0.59900
H860        H  0.64621193  0.04609631  0.14931190     0.14500
H861        H  0.58548626  0.02263134  0.06066911     0.46400
H862        H  0.66487405  0.05874126  0.02309979     0.41800
H863        H  0.64720420  0.08710219  0.18682584     0.45200
H864        H  0.67399930  0.01419604  0.07418222     0.36700
C865        C  0.36998012  0.01297240  0.99711043    -0.27500
C866        C  0.37822758  0.03228791  0.00730793     0.02100
C867        C  0.39783486  0.03320254  0.01125279     0.30100
C868        C  0.40877865  0.01506006  0.00462566    -0.19300
C869        C  0.40052699  0.99569968  0.99385523    -0.28700
C870        C  0.38079798  0.99492433  0.99026892     0.44200
C871        C  0.36600124  0.05100398  0.01451267     0.05400
O872        O  0.40649110  0.05175522  0.02136281    -0.57300
H873        H  0.42379826  0.01624160  0.00786309     0.18300
O874        O  0.37174779  0.97672267  0.97965516    -0.64000
H875        H  0.35491643  0.01171344  0.99485568     0.16800
C876        C  0.35175868  0.05677729  0.98960485     0.29000
C877        C  0.33905130  0.07288624  0.99871670    -0.24900
C878        C  0.34024720  0.08366519  0.03251175    -0.24100
C879        C  0.35527853  0.07881716  0.05628910     0.40500
C880        C  0.36776096  0.06241632  0.04750274    -0.26600
O881        O  0.35038304  0.04699853  0.95595387    -0.58500
H882        H  0.32793553  0.07644855  0.97948626     0.16100
O883        O  0.35798169  0.08993353  0.08825635    -0.59900
H884        H  0.37861967  0.05831248  0.06702259     0.14500
H885        H  0.36765379  0.96988601  0.00279302     0.46400
H886        H  0.33867149  0.03853536  0.95686657     0.41800
H887        H  0.36602941  0.10215073  0.08133311     0.45200
H888        H  0.40804900  0.05988926  0.99816855     0.36700
C889        C  0.14124690  0.06461715  0.45986011    -0.27500
C890        C  0.13865424  0.04731862  0.43622619     0.02100
C891        C  0.14735491  0.04725243  0.40166068     0.30100
C892        C  0.15885611  0.06422931  0.39133816    -0.19300
C893        C  0.16203505  0.08140655  0.41535609    -0.28700
C894        C  0.15281576  0.08161087  0.44973312     0.44200
C895        C  0.12751854  0.02894063  0.44854506     0.05400
O896        O  0.14481790  0.03055005  0.37792498    -0.57300
H897        H  0.16573081  0.06355755  0.36487282     0.18300
O898        O  0.15447609  0.09861426  0.47312706    -0.64000
H899        H  0.13441175  0.06484085  0.48643083     0.16800
C900        C  0.13598805  0.01248992  0.46857416     0.29000
C901        C  0.12536936  0.99506865  0.48006419    -0.24900
C902        C  0.10617689  0.99364432  0.47172811    -0.24100
C903        C  0.09773564  0.01029777  0.45155397     0.40500
C904        C  0.10845174  0.02772781  0.44005028    -0.26600
O905        O  0.15464140  0.01339869  0.47725101    -0.58500
H906        H  0.13224536  0.98265570  0.49563767     0.16100
O907        O  0.07924886  0.00937302  0.44163758    -0.59900
H908        H  0.10188607  0.04030347  0.42431776     0.14500
H909        H  0.16196143  0.09337232  0.49422436     0.46400
H910        H  0.16111806  0.00611038  0.45667733     0.41800
H911        H  0.07255855  0.01796526  0.46031533     0.45200
H912        H  0.15468155  0.02015906  0.38438902     0.36700
loop_ 
_geom_bond_atom_site_label_1 
_geom_bond_atom_site_label_2 
_geom_bond_distance 
_geom_bond_site_symmetry_2 
_ccdc_geom_bond_type 
N1            N2   1.325       .  A
N1            C5   1.345       .  A
N1           Cu9   2.078       .  S
N2            C3   1.349       .  A
N2           Cu8   2.095       .  S
C3            C4   1.385       .  A
C3            H6   1.082       .  S
C4            C5   1.380       .  A
C4           C28   1.471       .  S
C5            H7   1.082       .  S
Cu8          N11   2.095       .  S
Cu9          N19   2.078       .  S
Cu10         N12   2.065       .  S
Cu10         N18   2.065       .  S
N11          N12   1.323       .  A
N11          C15   1.349       .  A
N12          C13   1.344       .  A
C13          C14   1.381       .  A
C13          H16   1.082       .  S
C14          C15   1.388       .  A
C14         C230   1.475       .  S
C15          H17   1.082       .  S
N18          N19   1.320       .  A
N18          C22   1.343       .  A
N19          C20   1.346       .  A
C20          C21   1.390       .  A
C20          H23   1.082       .  S
C21          C22   1.387       .  A
C21         C893   1.488       .  S
C22          H24   1.080       .  S
N25          N26   1.324       .  A
N25          C29   1.347       .  A
N25         Cu33   2.082       .  S
N26          C27   1.346       .  A
N26         Cu32   2.083       .  S
C27          C28   1.383       .  A
C27          H30   1.082       .  S
C28          C29   1.383       .  A
C29          H31   1.082       .  S
Cu32         N35   2.083       .  S
Cu33         N43   2.082       .  S
Cu34         N36   2.065       .  S
Cu34         N42   2.065       .  S
N35          N36   1.322       .  A
N35          C39   1.347       .  A
N36          C37   1.342   1_554  A
C37          C38   1.380       .  A
C37          H40   1.082       .  S
C38          C39   1.386   1_556  A
C38         C254   1.471       .  S
C39          H41   1.082       .  S
N42          N43   1.320       .  A
N42          C46   1.344       .  A
N43          C44   1.345       .  A
C44          C45   1.390       .  A
C44          H47   1.081       .  S
C45          C46   1.388       .  A
C45         C878   1.490       .  S
C46          H48   1.081   1_554  S
N49          N50   1.322       .  A
N49          C53   1.345       .  A
N49         Cu57   2.078       .  S
N50          C51   1.347       .  A
N50         Cu56   2.076       .  S
C51          C52   1.384       .  A
C51          H54   1.082       .  S
C52          C53   1.384       .  A
C52          C76   1.474       .  S
C53          H55   1.082       .  S
Cu56         N59   2.077       .  S
Cu57         N67   2.078       .  S
Cu58         N60   2.075       .  S
Cu58         N66   2.075       .  S
N59          N60   1.323       .  A
N59          C63   1.344       .  A
N60          C61   1.346       .  A
C61          C62   1.383       .  A
C61          H64   1.082       .  S
C62          C63   1.383       .  A
C62         C350   1.471       .  S
C63          H65   1.082       .  S
N66          N67   1.321       .  A
N66          C70   1.346       .  A
N67          C68   1.343       .  A
C68          C69   1.388       .  A
C68          H71   1.080       .  S
C69          C70   1.389       .  A
C69         C854   1.490       .  S
C70          H72   1.082       .  S
N73          N74   1.323       .  A
N73          C77   1.345       .  A
N73         Cu81   2.072       .  S
N74          C75   1.349       .  A
N74         Cu80   2.091       .  S
C75          C76   1.386       .  A
C75          H78   1.082       .  S
C76          C77   1.382       .  A
C77          H79   1.082       .  S
Cu80         N83   2.091       .  S
Cu81         N91   2.072       .  S
Cu82         N84   2.077       .  S
Cu82         N90   2.076       .  S
N83          N84   1.323       .  A
N83          C87   1.347       .  A
N84          C85   1.347       .  A
C85          C86   1.383       .  A
C85          H88   1.082       .  S
C86          C87   1.386       .  A
C86         C326   1.478       .  S
C87          H89   1.082       .  S
N90          N91   1.321       .  A
N90          C94   1.345       .  A
N91          C92   1.344       .  A
C92          C93   1.386       .  A
C92          H95   1.081       .  S
C93          C94   1.387       .  A
C93         C830   1.484       .  S
C94          H96   1.082       .  S
N97          N98   1.323       .  A
N97         C101   1.346       .  A
N97        Cu105   2.076       .  S
N98          C99   1.345       .  A
N98        Cu104   2.071       .  S
C99         C100   1.381       .  A
C99         H102   1.082       .  S
C100        C101   1.382       .  A
C100        C124   1.467       .  S
C101        H103   1.082       .  S
Cu104       N107   2.071       .  S
Cu105       N115   2.077       .  S
Cu106       N108   2.072       .  S
Cu106       N114   2.072       .  S
N107        N108   1.322       .  A
N107        C111   1.345       .  A
N108        C109   1.345       .  A
C109        C110   1.382       .  A
C109        H112   1.082       .  S
C110        C111   1.382       .  A
C110        C278   1.469       .  S
C111        H113   1.082       .  S
N114        N115   1.320       .  A
N114        C118   1.343       .  A
N115        C116   1.345       .  A
C116        C117   1.390       .  A
C116        H119   1.080       .  S
C117        C118   1.389       .  A
C117        C797   1.491       .  S
C118        H120   1.081       .  S
N121        N122   1.324       .  A
N121        C125   1.345       .  A
N121       Cu129   2.074       .  S
N122        C123   1.346       .  A
N122       Cu128   2.082       .  S
C123        C124   1.382       .  A
C123        H126   1.082       .  S
C124        C125   1.380       .  A
C125        H127   1.082       .  S
Cu128       N131   2.081       .  S
Cu129       N139   2.074       .  S
Cu130       N132   2.062       .  S
Cu130       N138   2.062       .  S
N131        N132   1.321       .  A
N131        C135   1.348       .  A
N132        C133   1.342       .  A
C133        C134   1.380       .  A
C133        H136   1.082   1_556  S
C134        C135   1.386       .  A
C134        C302   1.471   1_556  S
C135        H137   1.082       .  S
N138        N139   1.320       .  A
N138        C142   1.341       .  A
N139        C140   1.346       .  A
C140        C141   1.390       .  A
C140        H143   1.081       .  S
C141        C142   1.386       .  A
C141        C773   1.486       .  S
C142        H144   1.081       .  S
C145        N146   1.356       .  A
C145        N150   1.358       .  A
C145        C749   1.486       .  S
N146        C147   1.358       .  A
C147        N148   1.361       .  A
C147        C725   1.491       .  S
N148        C149   1.362       .  A
C149        N150   1.361       .  A
C149        C821   1.491   1_565  S
C151        N152   1.357       .  A
C151        N156   1.357       .  A
C151        C902   1.487       .  S
N152        C153   1.359       .  A
C153        N154   1.361       .  A
C153        C734   1.478       .  S
N154        C155   1.361       .  A
C155        N156   1.358       .  A
C155        C806   1.493       .  S
N157        N158   1.323       .  A
N157        C161   1.342       .  A
N157       Cu165   2.072       .  S
N158        C159   1.346       .  A
N158       Cu164   2.068       .  S
C159        C160   1.382       .  A
C159        H162   1.082       .  S
C160        C161   1.380       .  A
C160        C184   1.465       .  S
C161        H163   1.082       .  S
Cu164       N167   2.069       .  S
Cu165       N175   2.072       .  S
Cu166       N168   2.073       .  S
Cu166       N174   2.073       .  S
N167        N168   1.323       .  A
N167        C171   1.345       .  A
N168        C169   1.344   1_556  A
C169        C170   1.382       .  A
C169        H172   1.082       .  S
C170        C171   1.382   1_554  A
C170        C410   1.468       .  S
C171        H173   1.082       .  S
N174        N175   1.318       .  A
N174        C178   1.344       .  A
N175        C176   1.343       .  A
C176        C177   1.394       .  A
C176        H179   1.080       .  S
C177        C178   1.394       .  A
C177        C701   1.501       .  S
C178        H180   1.078   1_556  S
N181        N182   1.322       .  A
N181        C185   1.342       .  A
N181       Cu189   2.064       .  S
N182        C183   1.347       .  A
N182       Cu188   2.070       .  S
C183        C184   1.383       .  A
C183        H186   1.082       .  S
C184        C185   1.379       .  A
C185        H187   1.082       .  S
Cu188       N191   2.070       .  S
Cu189       N199   2.065       .  S
Cu190       N192   2.076       .  S
Cu190       N198   2.076       .  S
N191        N192   1.323       .  A
N191        C195   1.343       .  A
N192        C193   1.346       .  A
C193        C194   1.383       .  A
C193        H196   1.082       .  S
C194        C195   1.381       .  A
C194        C386   1.469       .  S
C195        H197   1.082       .  S
N198        N199   1.321       .  A
N198        C202   1.344       .  A
N199        C200   1.344       .  A
C200        C201   1.386       .  A
C200        H203   1.081       .  S
C201        C202   1.388       .  A
C201        C758   1.484       .  S
C202        H204   1.082       .  S
C205        N206   1.362       .  A
C205        N210   1.357       .  A
C205        C710   1.489       .  S
N206        C207   1.363       .  A
C207        N208   1.361       .  A
C207        C677   1.493       .  S
N208        C209   1.359       .  A
C209        N210   1.356       .  A
C209        C845   1.488       .  S
C211        N212   1.355       .  A
C211        N216   1.357       .  A
C211        C782   1.487       .  S
N212        C213   1.356       .  A
C213        N214   1.364       .  A
C213        C869   1.496       .  S
N214        C215   1.365       .  A
C215        N216   1.361       .  A
C215        C686   1.491       .  S
N217        N218   1.323       .  A
N217        C221   1.345       .  A
N217       Cu225   2.075       .  S
N218        C219   1.348       .  A
N218       Cu224   2.085       .  S
C219        C220   1.384       .  A
C219        H222   1.082       .  S
C220        C221   1.381       .  A
C220        C244   1.471       .  S
C221        H223   1.082       .  S
Cu224       N227   2.086       .  S
Cu225       N235   2.075       .  S
Cu226       N228   2.075       .  S
Cu226       N234   2.075       .  S
N227        N228   1.323       .  A
N227        C231   1.346       .  A
N228        C229   1.346       .  A
C229        C230   1.383       .  A
C229        H232   1.082       .  S
C230        C231   1.386       .  A
C231        H233   1.082       .  S
N234        N235   1.322       .  A
N234        C238   1.345       .  A
N235        C236   1.345       .  A
C236        C237   1.386       .  A
C236        H239   1.082       .  S
C237        C238   1.385       .  A
C237        C653   1.482       .  S
C238        H240   1.082       .  S
N241        N242   1.322       .  A
N241        C245   1.345       .  A
N241       Cu249   2.073       .  S
N242        C243   1.347       .  A
N242       Cu248   2.078       .  S
C243        C244   1.384       .  A
C243        H246   1.082       .  S
C244        C245   1.382       .  A
C245        H247   1.082       .  S
Cu248       N251   2.078       .  S
Cu249       N259   2.073       .  S
Cu250       N252   2.066       .  S
Cu250       N258   2.066       .  S
N251        N252   1.322       .  A
N251        C255   1.344       .  A
N252        C253   1.345       .  A
C253        C254   1.382       .  A
C253        H256   1.082       .  S
C254        C255   1.384       .  A
C255        H257   1.082       .  S
N258        N259   1.321       .  A
N258        C262   1.343       .  A
N259        C260   1.343       .  A
C260        C261   1.387       .  A
C260        H263   1.082       .  S
C261        C262   1.386       .  A
C261        C629   1.484       .  S
C262        H264   1.081       .  S
N265        N266   1.322       .  A
N265        C269   1.343       .  A
N265       Cu273   2.068       .  S
N266        C267   1.345       .  A
N266       Cu272   2.069       .  S
C267        C268   1.381       .  A
C267        H270   1.082       .  S
C268        C269   1.381       .  A
C268        C292   1.465       .  S
C269        H271   1.082       .  S
Cu272       N275   2.070       .  S
Cu273       N283   2.068       .  S
Cu274       N276   2.071       .  S
Cu274       N282   2.071       .  S
N275        N276   1.322       .  A
N275        C279   1.344       .  A
N276        C277   1.345       .  A
C277        C278   1.382       .  A
C277        H280   1.082       .  S
C278        C279   1.382       .  A
C279        H281   1.082       .  S
N282        N283   1.321       .  A
N282        C286   1.345       .  A
N283        C284   1.343       .  A
C284        C285   1.384       .  A
C284        H287   1.082       .  S
C285        C286   1.385       .  A
C285        C605   1.479       .  S
C286        H288   1.082       .  S
N289        N290   1.321       .  A
N289        C293   1.342       .  A
N289       Cu297   2.058       .  S
N290        C291   1.346       .  A
N290       Cu296   2.075       .  S
C291        C292   1.383       .  A
C291        H294   1.082       .  S
C292        C293   1.379       .  A
C293        H295   1.082       .  S
Cu296       N299   2.077       .  S
Cu297       N307   2.059       .  S
Cu298       N300   2.073       .  S
Cu298       N306   2.073       .  S
N299        N300   1.323       .  A
N299        C303   1.343       .  A
N300        C301   1.346       .  A
C301        C302   1.383       .  A
C301        H304   1.082   1_554  S
C302        C303   1.383       .  A
C303        H305   1.082       .  S
N306        N307   1.320       .  A
N306        C310   1.344       .  A
N307        C308   1.341       .  A
C308        C309   1.385       .  A
C308        H311   1.081       .  S
C309        C310   1.388       .  A
C309        C590   1.483       .  S
C310        H312   1.082       .  S
N313        N314   1.324       .  A
N313        C317   1.345       .  A
N313       Cu321   2.076       .  S
N314        C315   1.348       .  A
N314       Cu320   2.091       .  S
C315        C316   1.384       .  A
C315        H318   1.082       .  S
C316        C317   1.381       .  A
C316        C340   1.472       .  S
C317        H319   1.082       .  S
Cu320       N323   2.091       .  S
Cu321       N331   2.076       .  S
Cu322       N324   2.071       .  S
Cu322       N330   2.071       .  S
N323        N324   1.322       .  A
N323        C327   1.348       .  A
N324        C325   1.345       .  A
C325        C326   1.383       .  A
C325        H328   1.082       .  S
C326        C327   1.388       .  A
C327        H329   1.082       .  S
N330        N331   1.320       .  A
N330        C334   1.342       .  A
N331        C332   1.347       .  A
C332        C333   1.390       .  A
C332        H335   1.081       .  S
C333        C334   1.387       .  A
C333        C566   1.488       .  S
C334        H336   1.081       .  S
N337        N338   1.323       .  A
N337        C341   1.347       .  A
N337       Cu345   2.078       .  S
N338        C339   1.345       .  A
N338       Cu344   2.081       .  S
C339        C340   1.383       .  A
C339        H342   1.082       .  S
C340        C341   1.383       .  A
C341        H343   1.082       .  S
Cu344       N347   2.080   1_556  S
Cu345       N355   2.078       .  S
Cu346       N348   2.064       .  S
Cu346       N354   2.064   1_554  S
N347        N348   1.321       .  A
N347        C351   1.347       .  A
N348        C349   1.343       .  A
C349        C350   1.382       .  A
C349        H352   1.082       .  S
C350        C351   1.385       .  A
C351        H353   1.082       .  S
N354        N355   1.321       .  A
N354        C358   1.342   1_556  A
N355        C356   1.345       .  A
C356        C357   1.389       .  A
C356        H359   1.081       .  S
C357        C358   1.386   1_556  A
C357        C533   1.485   1_556  S
C358        H360   1.081       .  S
C361        N362   1.362       .  A
C361        N366   1.358       .  A
C361        C662   1.485       .  S
N362        C363   1.363       .  A
C363        N364   1.359       .  A
C363        C509   1.487       .  S
N364        C365   1.356       .  A
C365        N366   1.356       .  A
C365        C614   1.480       .  S
C367        N368   1.359       .  A
C367        N372   1.353       .  A
C367        C557   1.484       .  S
N368        C369   1.363       .  A
C369        N370   1.364       .  A
C369        C518   1.491       .  S
N370        C371   1.359       .  A
C371        N372   1.353       .  A
C371        C485   1.479       .  S
N373        N374   1.323       .  A
N373        C377   1.345       .  A
N373       Cu381   2.071       .  S
N374        C375   1.343       .  A
N374       Cu380   2.068       .  S
C375        C376   1.378       .  A
C375        H378   1.082       .  S
C376        C377   1.380       .  A
C376        C400   1.461       .  S
C377        H379   1.082       .  S
Cu380       N383   2.068       .  S
Cu381       N391   2.071       .  S
Cu382       N384   2.067       .  S
Cu382       N390   2.067       .  S
N383        N384   1.321       .  A
N383        C387   1.346       .  A
N384        C385   1.342       .  A
C385        C386   1.382       .  A
C385        H388   1.082       .  S
C386        C387   1.383       .  A
C387        H389   1.082       .  S
N390        N391   1.321       .  A
N390        C394   1.343       .  A
N391        C392   1.345       .  A
C392        C393   1.386       .  A
C392        H395   1.081       .  S
C393        C394   1.385       .  A
C393        C494   1.481       .  S
C394        H396   1.082       .  S
N397        N398   1.322       .  A
N397        C401   1.344       .  A
N397       Cu405   2.066       .  S
N398        C399   1.344       .  A
N398       Cu404   2.066       .  S
C399        C400   1.380       .  A
C399        H402   1.082       .  S
C400        C401   1.380       .  A
C401        H403   1.082       .  S
Cu404       N407   2.066       .  S
Cu405       N415   2.067       .  S
Cu406       N408   2.073       .  S
Cu406       N414   2.073       .  S
N407        N408   1.322       .  A
N407        C411   1.343       .  A
N408        C409   1.345       .  A
C409        C410   1.383       .  A
C409        H412   1.082       .  S
C410        C411   1.381       .  A
C411        H413   1.082       .  S
N414        N415   1.321       .  A
N414        C418   1.344       .  A
N415        C416   1.343       .  A
C416        C417   1.387       .  A
C416        H419   1.080       .  S
C417        C418   1.388       .  A
C417        C470   1.485       .  S
C418        H420   1.082       .  S
C421        N422   1.357       .  A
C421        N426   1.358       .  A
C421        C461   1.488       .  S
N422        C423   1.358       .  A
C423        N424   1.359       .  A
C423        C542   1.484       .  S
N424        C425   1.360       .  A
C425        N426   1.359       .  A
C425        C446   1.487       .  S
C427        N428   1.358       .  A
C427        N432   1.358       .  A
C427        C581   1.487       .  S
N428        C429   1.358       .  A
C429        N430   1.358   1_554  A
C429        C437   1.480       .  S
N430        C431   1.358       .  A
C431        N432   1.356   1_556  A
C431        C638   1.484       .  S
C433        C434   1.404   1_556  A
C433        C438   1.398       .  A
C433        H443   1.084       .  S
C434        C435   1.409       .  A
C434        C439   1.484       .  S
C435        C436   1.401       .  A
C435        O440   1.373       .  S
C436        C437   1.405       .  A
C436        H441   1.084       .  S
C437        C438   1.410   1_554  A
C438        O442   1.372       .  S
C439        C444   1.408   1_455  A
C439        C448   1.403   1_455  A
O440        H456   0.993       .  S
O442        H453   0.991       .  S
C444        C445   1.399       .  A
C444        O449   1.371       .  S
C445        C446   1.408       .  A
C445        H450   1.083       .  S
C446        C447   1.413       .  A
C447        C448   1.399       .  A
C447        O451   1.371       .  S
C448        H452   1.084   1_655  S
O449        H454   0.992   1_554  S
O451        H455   0.991       .  S
C457        C458   1.403       .  A
C457        C462   1.399       .  A
C457        H467   1.083       .  S
C458        C459   1.409       .  A
C458        C463   1.486       .  S
C459        C460   1.399       .  A
C459        O464   1.372       .  S
C460        C461   1.407       .  A
C460        H465   1.083       .  S
C461        C462   1.415       .  A
C462        O466   1.372       .  S
C463        C468   1.410       .  A
C463        C472   1.403       .  A
O464        H480   0.991       .  S
O466        H477   0.993       .  S
C468        C469   1.399       .  A
C468        O473   1.372       .  S
C469        C470   1.406       .  A
C469        H474   1.082       .  S
C470        C471   1.411       .  A
C471        C472   1.400       .  A
C471        O475   1.372       .  S
C472        H476   1.083       .  S
O473        H478   0.994       .  S
O475        H479   0.993       .  S
C481        C482   1.400       .  A
C481        C486   1.394       .  A
C481        H491   1.084       .  S
C482        C483   1.408       .  A
C482        C487   1.479       .  S
C483        C484   1.403       .  A
C483        O488   1.371       .  S
C484        C485   1.405       .  A
C484        H489   1.083       .  S
C485        C486   1.412       .  A
C486        O490   1.372       .  S
C487        C492   1.407       .  A
C487        C496   1.402       .  A
O488        H504   0.994       .  S
O490        H501   0.991       .  S
C492        C493   1.398       .  A
C492        O497   1.373       .  S
C493        C494   1.404       .  A
C493        H498   1.083       .  S
C494        C495   1.412       .  A
C495        C496   1.401       .  A
C495        O499   1.371       .  S
C496        H500   1.084       .  S
O497        H502   0.992       .  S
O499        H503   0.993       .  S
C505        C506   1.401       .  A
C505        C510   1.398       .  A
C505        H515   1.084       .  S
C506        C507   1.409       .  A
C506        C511   1.484       .  S
C507        C508   1.403       .  A
C507        O512   1.371       .  S
C508        C509   1.407       .  A
C508        H513   1.083       .  S
C509        C510   1.414       .  A
C510        O514   1.372       .  S
C511        C516   1.407       .  A
C511        C520   1.402       .  A
O512        H528   0.992       .  S
O514        H525   0.992       .  S
C516        C517   1.401       .  A
C516        O521   1.373       .  S
C517        C518   1.408       .  A
C517        H522   1.083       .  S
C518        C519   1.416       .  A
C519        C520   1.401       .  A
C519        O523   1.371       .  S
C520        H524   1.084       .  S
O521        H526   0.992       .  S
O523        H527   0.992       .  S
C529        C530   1.401       .  A
C529        C534   1.399       .  A
C529        H539   1.084       .  S
C530        C531   1.407   1_554  A
C530        C535   1.479       .  S
C531        C532   1.399       .  A
C531        O536   1.372       .  S
C532        C533   1.406   1_556  A
C532        H537   1.082       .  S
C533        C534   1.413       .  A
C534        O538   1.371       .  S
C535        C540   1.406       .  A
C535        C544   1.402       .  A
O536        H552   0.992       .  S
O538        H549   0.994       .  S
C540        C541   1.398       .  A
C540        O545   1.372       .  S
C541        C542   1.406       .  A
C541        H546   1.083       .  S
C542        C543   1.413       .  A
C543        C544   1.401       .  A
C543        O547   1.371       .  S
C544        H548   1.084   1_554  S
O545        H550   0.993       .  S
O547        H551   0.992   1_554  S
C553        C554   1.400       .  A
C553        C558   1.397       .  A
C553        H563   1.084       .  S
C554        C555   1.408       .  A
C554        C559   1.481       .  S
C555        C556   1.404       .  A
C555        O560   1.373       .  S
C556        C557   1.406       .  A
C556        H561   1.083       .  S
C557        C558   1.414       .  A
C558        O562   1.373       .  S
C559        C564   1.406       .  A
C559        C568   1.403       .  A
O560        H576   0.992       .  S
O562        H573   0.990       .  S
C564        C565   1.399       .  A
C564        O569   1.372       .  S
C565        C566   1.407       .  A
C565        H570   1.082       .  S
C566        C567   1.413       .  A
C567        C568   1.402       .  A
C567        O571   1.371       .  S
C568        H572   1.084       .  S
O569        H574   0.992       .  S
O571        H575   0.992       .  S
C577        C578   1.401       .  A
C577        C582   1.399       .  A
C577        H587   1.083       .  S
C578        C579   1.407       .  A
C578        C583   1.479       .  S
C579        C580   1.397       .  A
C579        O584   1.372       .  S
C580        C581   1.408       .  A
C580        H585   1.083       .  S
C581        C582   1.415       .  A
C582        O586   1.371       .  S
C583        C588   1.407       .  A
C583        C592   1.401       .  A
O584        H600   0.992   1_554  S
O586        H597   0.991       .  S
C588        C589   1.400       .  A
C588        O593   1.372       .  S
C589        C590   1.406       .  A
C589        H594   1.083       .  S
C590        C591   1.413       .  A
C591        C592   1.396       .  A
C591        O595   1.370       .  S
C592        H596   1.084       .  S
O593        H598   0.992       .  S
O595        H599   0.992       .  S
C601        C602   1.402       .  A
C601        C606   1.401       .  A
C601        H611   1.084       .  S
C602        C603   1.406       .  A
C602        C607   1.477       .  S
C603        C604   1.396       .  A
C603        O608   1.372       .  S
C604        C605   1.404       .  A
C604        H609   1.083       .  S
C605        C606   1.412       .  A
C606        O610   1.371       .  S
C607        C612   1.406       .  A
C607        C616   1.401       .  A
O608        H624   0.992       .  S
O610        H621   0.992       .  S
C612        C613   1.400       .  A
C612        O617   1.372       .  S
C613        C614   1.406       .  A
C613        H618   1.083       .  S
C614        C615   1.411       .  A
C615        C616   1.397       .  A
C615        O619   1.372       .  S
C616        H620   1.084       .  S
O617        H622   0.993       .  S
O619        H623   0.990       .  S
C625        C626   1.401       .  A
C625        C630   1.399       .  A
C625        H635   1.084       .  S
C626        C627   1.406       .  A
C626        C631   1.477       .  S
C627        C628   1.397       .  A
C627        O632   1.372       .  S
C628        C629   1.406       .  A
C628        H633   1.082       .  S
C629        C630   1.413       .  A
C630        O634   1.371       .  S
C631        C636   1.406       .  A
C631        C640   1.401       .  A
O632        H648   0.992       .  S
O634        H645   0.992       .  S
C636        C637   1.398       .  A
C636        O641   1.372       .  S
C637        C638   1.407       .  A
C637        H642   1.083       .  S
C638        C639   1.415       .  A
C639        C640   1.398       .  A
C639        O643   1.372   1_556  S
C640        H644   1.084       .  S
O641        H646   0.993       .  S
O643        H647   0.990       .  S
C649        C650   1.404       .  A
C649        C654   1.400       .  A
C649        H659   1.084       .  S
C650        C651   1.407       .  A
C650        C655   1.483       .  S
C651        C652   1.401       .  A
C651        O656   1.371       .  S
C652        C653   1.405       .  A
C652        H657   1.083       .  S
C653        C654   1.410       .  A
C654        O658   1.371       .  S
C655        C660   1.407       .  A
C655        C664   1.404       .  A
O656        H672   0.992       .  S
O658        H669   0.991       .  S
C660        C661   1.398       .  A
C660        O665   1.372       .  S
C661        C662   1.407       .  A
C661        H666   1.083       .  S
C662        C663   1.412       .  A
C663        C664   1.403       .  A
C663        O667   1.371       .  S
C664        H668   1.084       .  S
O665        H670   0.993       .  S
O667        H671   0.992       .  S
C673        C674   1.404       .  A
C673        C678   1.402       .  A
C673        H683   1.084       .  S
C674        C675   1.411   1_554  A
C674        C679   1.494   1_554  S
C675        C676   1.405       .  A
C675        O680   1.373       .  S
C676        C677   1.407   1_556  A
C676        H681   1.083       .  S
C677        C678   1.414       .  A
C678        O682   1.371       .  S
C679        C684   1.410   1_556  A
C679        C688   1.407       .  A
O680        H696   0.994       .  S
O682        H693   0.991       .  S
C684        C685   1.400   1_554  A
C684        O689   1.371       .  S
C685        C686   1.407       .  A
C685        H690   1.083       .  S
C686        C687   1.413       .  A
C687        C688   1.404       .  A
C687        O691   1.371       .  S
C688        H692   1.083       .  S
O689        H694   0.993       .  S
O691        H695   0.991   1_565  S
C697        C698   1.400   1_554  A
C697        C702   1.402       .  A
C697        H707   1.084       .  S
C698        C699   1.404       .  A
C698        C703   1.481       .  S
C699        C700   1.399       .  A
C699        O704   1.372       .  S
C700        C701   1.411       .  A
C700        H705   1.080       .  S
C701        C702   1.419   1_556  A
C702        O706   1.369       .  S
C703        C708   1.407       .  A
C703        C712   1.400       .  A
O704        H720   0.991       .  S
O706        H717   0.993       .  S
C708        C709   1.402   1_556  A
C708        O713   1.371       .  S
C709        C710   1.407       .  A
C709        H714   1.083       .  S
C710        C711   1.416       .  A
C711        C712   1.399   1_554  A
C711        O715   1.372       .  S
C712        H716   1.084       .  S
O713        H718   0.994   1_556  S
O715        H719   0.991   1_554  S
C721        C722   1.404       .  A
C721        C726   1.401       .  A
C721        H731   1.084       .  S
C722        C723   1.408       .  A
C722        C727   1.487   1_655  S
C723        C724   1.401       .  A
C723        O728   1.373       .  S
C724        C725   1.408       .  A
C724        H729   1.083       .  S
C725        C726   1.413       .  A
C726        O730   1.370       .  S
C727        C732   1.411       .  A
C727        C736   1.404       .  A
O728        H744   0.994       .  S
O730        H741   0.991       .  S
C732        C733   1.401       .  A
C732        O737   1.371       .  S
C733        C734   1.403       .  A
C733        H738   1.084       .  S
C734        C735   1.409       .  A
C735        C736   1.399       .  A
C735        O739   1.372       .  S
C736        H740   1.084       .  S
O737        H742   0.993       .  S
O739        H743   0.991       .  S
C745        C746   1.401       .  A
C745        C750   1.399       .  A
C745        H755   1.084       .  S
C746        C747   1.406       .  A
C746        C751   1.479       .  S
C747        C748   1.401       .  A
C747        O752   1.372       .  S
C748        C749   1.408       .  A
C748        H753   1.083       .  S
C749        C750   1.414       .  A
C750        O754   1.372       .  S
C751        C756   1.406       .  A
C751        C760   1.402       .  A
O752        H768   0.992       .  S
O754        H765   0.991       .  S
C756        C757   1.399       .  A
C756        O761   1.372       .  S
C757        C758   1.405       .  A
C757        H762   1.083       .  S
C758        C759   1.414       .  A
C759        C760   1.402       .  A
C759        O763   1.371       .  S
C760        H764   1.084       .  S
O761        H766   0.992       .  S
O763        H767   0.992       .  S
C769        C770   1.400       .  A
C769        C774   1.401       .  A
C769        H779   1.084       .  S
C770        C771   1.403       .  A
C770        C775   1.473       .  S
C771        C772   1.397       .  A
C771        O776   1.372       .  S
C772        C773   1.408       .  A
C772        H777   1.082       .  S
C773        C774   1.413       .  A
C774        O778   1.371       .  S
C775        C780   1.404       .  A
C775        C784   1.398       .  A
O776        H792   0.993   1_556  S
O778        H789   0.992       .  S
C780        C781   1.403       .  A
C780        O785   1.371       .  S
C781        C782   1.409       .  A
C781        H786   1.083       .  S
C782        C783   1.415       .  A
C783        C784   1.396       .  A
C783        O787   1.370       .  S
C784        H788   1.084       .  S
O785        H790   0.992       .  S
O787        H791   0.990       .  S
C793        C794   1.402       .  A
C793        C798   1.403       .  A
C793        H803   1.084       .  S
C794        C795   1.406       .  A
C794        C799   1.481       .  S
C795        C796   1.397       .  A
C795        O800   1.372       .  S
C796        C797   1.407       .  A
C796        H801   1.081       .  S
C797        C798   1.415       .  A
C798        O802   1.370       .  S
C799        C804   1.406       .  A
C799        C808   1.399       .  A
O800        H816   0.992       .  S
O802        H813   0.992       .  S
C804        C805   1.404       .  A
C804        O809   1.371       .  S
C805        C806   1.410       .  A
C805        H810   1.083       .  S
C806        C807   1.417       .  A
C807        C808   1.396       .  A
C807        O811   1.371       .  S
C808        H812   1.084       .  S
O809        H814   0.994       .  S
O811        H815   0.991       .  S
C817        C818   1.402       .  A
C817        C822   1.403       .  A
C817        H827   1.084       .  S
C818        C819   1.407       .  A
C818        C823   1.483       .  S
C819        C820   1.399       .  A
C819        O824   1.372       .  S
C820        C821   1.408       .  A
C820        H825   1.083   1_545  S
C821        C822   1.415       .  A
C822        O826   1.370       .  S
C823        C828   1.407       .  A
C823        C832   1.403       .  A
O824        H840   0.992       .  S
O826        H837   0.993       .  S
C828        C829   1.402       .  A
C828        O833   1.371       .  S
C829        C830   1.406       .  A
C829        H834   1.083       .  S
C830        C831   1.411       .  A
C831        C832   1.400       .  A
C831        O835   1.371       .  S
C832        H836   1.084       .  S
O833        H838   0.992       .  S
O835        H839   0.993       .  S
C841        C842   1.400       .  A
C841        C846   1.400       .  A
C841        H851   1.084       .  S
C842        C843   1.404       .  A
C842        C847   1.477       .  S
C843        C844   1.401   1_545  A
C843        O848   1.372       .  S
C844        C845   1.410       .  A
C844        H849   1.083       .  S
C845        C846   1.413   1_565  A
C846        O850   1.371       .  S
C847        C852   1.405       .  A
C847        C856   1.399       .  A
O848        H864   0.991       .  S
O850        H861   0.993       .  S
C852        C853   1.401       .  A
C852        O857   1.372       .  S
C853        C854   1.408       .  A
C853        H858   1.082       .  S
C854        C855   1.415       .  A
C855        C856   1.400       .  A
C855        O859   1.370       .  S
C856        H860   1.084       .  S
O857        H862   0.993       .  S
O859        H863   0.992       .  S
C865        C866   1.401   1_556  A
C865        C870   1.396   1_545  A
C865        H875   1.083       .  S
C866        C867   1.411       .  A
C866        C871   1.490       .  S
C867        C868   1.405       .  A
C867        O872   1.371       .  S
C868        C869   1.409   1_544  A
C868        H873   1.083       .  S
C869        C870   1.418       .  A
C870        O874   1.371       .  S
C871        C876   1.410   1_554  A
C871        C880   1.404       .  A
O872        H888   0.994   1_554  S
O874        H885   0.990   1_556  S
C876        C877   1.401       .  A
C876        O881   1.373       .  S
C877        C878   1.406   1_556  A
C877        H882   1.082       .  S
C878        C879   1.413       .  A
C879        C880   1.401       .  A
C879        O883   1.370       .  S
C880        H884   1.083       .  S
O881        H886   0.993       .  S
O883        H887   0.993       .  S
C889        C890   1.399       .  A
C889        C894   1.402       .  A
C889        H899   1.084       .  S
C890        C891   1.404       .  A
C890        C895   1.474       .  S
C891        C892   1.400       .  A
C891        O896   1.372       .  S
C892        C893   1.408       .  A
C892        H897   1.082       .  S
C893        C894   1.414       .  A
C894        O898   1.372       .  S
C895        C900   1.403       .  A
C895        C904   1.400       .  A
O896        H912   0.990       .  S
O898        H909   0.992       .  S
C900        C901   1.398   1_545  A
C900        O905   1.372       .  S
C901        C902   1.408       .  A
C901        H906   1.083       .  S
C902        C903   1.415   1_565  A
C903        C904   1.402       .  A
C903        O907   1.371       .  S
C904        H908   1.084       .  S
O905        H910   0.993       .  S
O907        H911   0.991       .  S
