geometry optimzed in LAMMPS
_audit_creation_date              2020-11-30 
_audit_creation_method            'lammps2cif' 
_symmetry_space_group_name_H-M    'P1' 
_symmetry_Int_Tables_number       1 
_symmetry_cell_setting            triclinic 
loop_ 
_symmetry_equiv_pos_as_xyz 
  x,y,z 
_cell_length_a                    31.899869130556674 
_cell_length_b                    35.19980600343839 
_cell_length_c                    58.0361109958603 
_cell_angle_alpha                 90.02353389693432 
_cell_angle_beta                  89.94392190084055 
_cell_angle_gamma                 89.96422990712327 
loop_ 
_atom_site_label 
_atom_site_type_symbol 
_atom_site_fract_x 
_atom_site_fract_y 
_atom_site_fract_z 
_atom_site_charge 
O1          O  0.58503245  0.01303900  0.32937610    -0.57480
C2          C  0.56236411  0.09174486  0.27689200     0.75140
O3          O  0.66411272  0.11157705  0.33010073    -0.58640
C4          C  0.61677471  0.00200908  0.34071393     0.75120
C5          C  0.68653638  0.03405221  0.27657260     0.77510
Cd6        Cd  0.62448721  0.06286301  0.30813298     1.37470
O7          O  0.55943712  0.05839044  0.28499481    -0.57480
O8          O  0.65535624  0.01464922  0.28300941    -0.56290
C9          C  0.63183680  0.12430120  0.34032106     0.77470
O10         O  0.68932783  0.06743342  0.28465057    -0.58660
O11         O  0.59374373  0.11104889  0.28312591    -0.57110
O12         O  0.65069762  0.01961260  0.33707763    -0.57100
O13         O  0.59737282  0.10824173  0.33574834    -0.56280
O14         O  0.55713807  0.31440236  0.45741174    -0.57480
C15         C  0.61987958  0.37516484  0.40442320     0.75140
O16         O  0.69564831  0.31369152  0.45360124    -0.58640
C17         C  0.56228161  0.28233232  0.46697907     0.75120
C18         C  0.62922739  0.25128352  0.40383925     0.77510
Cd19       Cd  0.62472813  0.31275913  0.43639308     1.37460
O20         O  0.58857624  0.36674263  0.41693765    -0.57480
O21         O  0.59782859  0.27292881  0.40579908    -0.56290
C22         C  0.68813643  0.34100978  0.46722424     0.77470
O23         O  0.65964665  0.25807781  0.41731599    -0.58660
O24         O  0.65196704  0.35464808  0.40701928    -0.57110
O25         O  0.59632826  0.26531645  0.46271292    -0.57100
O26         O  0.65116096  0.35399824  0.46692703    -0.56280
O27         O  0.80256827  0.19266964  0.70190768    -0.57480
C28         C  0.86781356  0.12494218  0.65505525     0.75140
O29         O  0.90818612  0.24627984  0.67019823    -0.58640
C30         C  0.81094655  0.21900052  0.71607834     0.75120
C31         C  0.93701569  0.15886907  0.71682187     0.77510
Cd32       Cd  0.87432932  0.18849380  0.68606372     1.37460
O33         O  0.83787145  0.13317003  0.66854332    -0.57480
O34         O  0.89881614  0.14952498  0.71816898    -0.56290
C35         C  0.88192994  0.25017533  0.65397767     0.77470
O36         O  0.94660994  0.18240176  0.70114843    -0.58660
O37         O  0.89994994  0.14583185  0.65650168    -0.57110
O38         O  0.84854070  0.23039992  0.71650839    -0.57100
O39         O  0.85253817  0.22620263  0.65314943    -0.56280
O40         O  0.83773808  0.48978983  0.57847660    -0.57480
C41         C  0.81062404  0.40743501  0.52899188     0.75140
O42         O  0.94661683  0.44248411  0.54263437    -0.58640
C43         C  0.87000746  0.50100371  0.58929427     0.75120
C44         C  0.88413507  0.37511002  0.59020406     0.77510
Cd45       Cd  0.87501515  0.43718648  0.55868717     1.37460
O46         O  0.80347928  0.43554703  0.54208063    -0.57480
O47         O  0.85767677  0.40130212  0.59337038    -0.56290
C48         C  0.93698490  0.46671182  0.52736293     0.77470
O49         O  0.90723306  0.37754684  0.57251072    -0.58660
O50         O  0.84736049  0.39397085  0.52959823    -0.57110
O51         O  0.90342355  0.48249929  0.58591449    -0.57100
O52         O  0.89894082  0.47676103  0.52664837    -0.56280
O53         O  0.41501503  0.38931284  0.07999793    -0.57480
C54         C  0.43794883  0.46723943  0.02728146     0.75140
O55         O  0.30339096  0.43505082  0.04230071    -0.58640
C56         C  0.38279047  0.37505005  0.08939298     0.75120
C57         C  0.36743014  0.49988283  0.09043922     0.77510
Cd58       Cd  0.37505517  0.43809680  0.05826104     1.37460
O59         O  0.44268343  0.43569114  0.03746012    -0.57480
O60         O  0.39818404  0.47720535  0.09016415    -0.56290
C61         C  0.31140774  0.40902924  0.02785516     0.77470
O62         O  0.33900925  0.49367597  0.07568006    -0.58660
O63         O  0.40406595  0.48471679  0.03132856    -0.57110
O64         O  0.34794457  0.38985639  0.08421758    -0.57100
O65         O  0.34908672  0.39780284  0.02701663    -0.56280
O66         O  0.30672075  0.18621850  0.20526282    -0.57480
C67         C  0.37047336  0.12562896  0.15468795     0.75140
O68         O  0.41314393  0.23985651  0.16529942    -0.58640
C69         C  0.31280143  0.21571894  0.21731555     0.75120
C70         C  0.43863296  0.15828313  0.21678557     0.77510
Cd71       Cd  0.37601758  0.18796988  0.18612419     1.37470
O72         O  0.33898358  0.13525706  0.16673696    -0.57480
O73         O  0.40719261  0.13904100  0.21055204    -0.56290
C74         C  0.38162217  0.24865374  0.15308363     0.77470
O75         O  0.44139278  0.19178038  0.20889241    -0.58660
O76         O  0.40320894  0.14556135  0.15686263    -0.57110
O77         O  0.34824746  0.23139296  0.21515039    -0.57100
O78         O  0.34874589  0.22959840  0.15661172    -0.56280
O79         O  0.44751416  0.43485919  0.70204222    -0.57480
C80         C  0.38417040  0.50157049  0.65474370     0.75140
O81         O  0.34111205  0.38346037  0.66761279    -0.58640
C82         C  0.43922815  0.40874083  0.71634529     0.75120
C83         C  0.31026392  0.46821407  0.71542026     0.77510
Cd84       Cd  0.37577055  0.43887954  0.68599792     1.37470
O85         O  0.40604915  0.49981713  0.67291832    -0.57480
O86         O  0.34740203  0.48071840  0.71568176    -0.56290
C87         C  0.37219341  0.37567126  0.65474480     0.77470
O88         O  0.30311754  0.44114259  0.70155921    -0.58660
O89         O  0.35939675  0.47427728  0.65097624    -0.57110
O90         O  0.40154300  0.39756419  0.71687078    -0.57100
O91         O  0.40354762  0.39738665  0.65646976    -0.56280
O92         O  0.40855983  0.12894505  0.57306403    -0.57480
C93         C  0.43879822  0.21938863  0.52906666     0.75140
O94         O  0.30327130  0.18496378  0.54184163    -0.58640
C95         C  0.38392894  0.12534152  0.59004927     0.75120
C96         C  0.36933731  0.24983102  0.59023003     0.77510
Cd97       Cd  0.37512581  0.18767580  0.55845919     1.37460
O98         O  0.44438222  0.18795458  0.53927255    -0.57480
O99         O  0.40219583  0.23000631  0.58779755    -0.56290
C100        C  0.31210214  0.15953740  0.52713897     0.77470
O101        O  0.33829889  0.24086068  0.57769615    -0.58660
O102        O  0.40383982  0.23551874  0.53225265    -0.57110
O103        O  0.35620974  0.15067114  0.59249563    -0.57100
O104        O  0.34952199  0.14790441  0.52707145    -0.56280
O105        O  0.66264989  0.01253218  0.91453614    -0.57480
C106        C  0.69163803  0.09209651  0.96599282     0.75140
O107        O  0.59355648  0.12240606  0.92251791    -0.58640
C108        C  0.63009558  0.00252451  0.90349719     0.75120
C109        C  0.56329063  0.03491694  0.96782095     0.77510
Cd110      Cd  0.62620966  0.06332358  0.93655614     1.37460
O111        O  0.69162890  0.05769838  0.95954233    -0.57480
O112        O  0.59847686  0.01897311  0.96520500    -0.56290
C113        C  0.61662505  0.12484433  0.90476795     0.77470
O114        O  0.55711817  0.06481748  0.95615552    -0.58660
O115        O  0.66240332  0.11280641  0.95848306    -0.57110
O116        O  0.59685221  0.02048717  0.90817509    -0.57100
O117        O  0.64299596  0.09851940  0.90150995    -0.56280
O118        O  0.66320489  0.36313496  0.82933217    -0.57480
C119        C  0.68868805  0.28363840  0.77852136     0.75140
O120        O  0.59226165  0.25214904  0.82283373    -0.58640
C121        C  0.63104813  0.37614438  0.83949922     0.75120
C122        C  0.56137299  0.34217259  0.77850486     0.77510
Cd123      Cd  0.62454012  0.31211396  0.80897957     1.37460
O124        O  0.69659135  0.30965097  0.79296985    -0.57480
O125        O  0.59920730  0.35299365  0.77776818    -0.56290
C126        C  0.61558132  0.24925981  0.84038864     0.77470
O127        O  0.55286741  0.31659525  0.79314299    -0.58660
O128        O  0.65131836  0.27176264  0.77800153    -0.57110
O129        O  0.59659275  0.35984300  0.83520230    -0.57100
O130        O  0.64173396  0.27567814  0.84351289    -0.56280
O131        O  0.16016798  0.11756558  0.82740181    -0.57480
C132        C  0.18695711  0.03433620  0.77717008     0.75140
O133        O  0.08611561  0.01111567  0.82755423    -0.58640
C134        C  0.12953018  0.12504252  0.84059697     0.75120
C135        C  0.06182783  0.09173678  0.77630085     0.77510
Cd136      Cd  0.12389497  0.06353446  0.80789332     1.37470
O137        O  0.19433957  0.06228655  0.79035565    -0.57480
O138        O  0.09949529  0.10291233  0.77584575    -0.56290
C139        C  0.11817915  0.99945211  0.83832878     0.77470
O140        O  0.05265414  0.06689748  0.79127992    -0.58660
O141        O  0.15015511  0.02088584  0.77788863    -0.57110
O142        O  0.09743296  0.10462472  0.83800245    -0.57100
O143        O  0.15188265  0.01746631  0.83500427    -0.56280
O144        O  0.08802306  0.36948208  0.91888280    -0.57480
C145        C  0.06147596  0.28354620  0.96668629     0.75140
O146        O  0.16393759  0.26393085  0.91489221    -0.58640
C147        C  0.11654764  0.37612620  0.90423847     0.75120
C148        C  0.18774318  0.34258915  0.96685725     0.77510
Cd149      Cd  0.12443704  0.31371427  0.93616581     1.37470
O150        O  0.05266487  0.30874773  0.95185834    -0.57480
O151        O  0.15104312  0.35623284  0.96619962    -0.56290
C152        C  0.13172226  0.25032468  0.90517334     0.77470
O153        O  0.19492025  0.31453863  0.95374448    -0.58660
O154        O  0.09956747  0.27358240  0.96788925    -0.57110
O155        O  0.14763936  0.35389068  0.90469824    -0.57100
O156        O  0.09705170  0.26571959  0.91008473    -0.56280
O157        O  0.83890458  0.38522484  0.16692108    -0.57480
C158        C  0.81148653  0.46817232  0.21659307     0.75140
O159        O  0.94793671  0.43462749  0.20278837    -0.58640
C160        C  0.87053911  0.37588331  0.15491479     0.75120
C161        C  0.88262442  0.50065228  0.15504339     0.77510
Cd162      Cd  0.87579454  0.43845390  0.18687931     1.37460
O163        O  0.80927668  0.43468018  0.20862964    -0.57480
O164        O  0.85204673  0.47773070  0.15512257    -0.56290
C165        C  0.93864234  0.41115544  0.21853627     0.77470
O166        O  0.91085890  0.49460126  0.16996039    -0.58660
O167        O  0.84303031  0.48761358  0.21067053    -0.57110
O168        O  0.90308709  0.39553411  0.15800704    -0.57100
O169        O  0.90059373  0.40144193  0.21981038    -0.56280
O170        O  0.94687657  0.19045025  0.04245516    -0.57480
C171        C  0.88077356  0.12475486  0.08971417     0.75140
O172        O  0.83512028  0.23840189  0.07929020    -0.58640
C173        C  0.93853723  0.21570346  0.02759144     0.75120
C174        C  0.81410207  0.15715763  0.02721197     0.77510
Cd175      Cd  0.87493750  0.18759177  0.05856161     1.37470
O176        O  0.91278824  0.13599225  0.07867333    -0.57480
O177        O  0.84513408  0.13788791  0.03408398    -0.56290
C178        C  0.86674432  0.24972118  0.09056735     0.77470
O179        O  0.81094441  0.19087231  0.03475216    -0.58660
O180        O  0.84709655  0.14301680  0.08659451    -0.57110
O181        O  0.90072247  0.22633837  0.02648429    -0.57100
O182        O  0.90061626  0.23210911  0.08694893    -0.56280
O183        O  0.16193487  0.00587795  0.41973536    -0.57480
C184        C  0.18660483  0.09222817  0.46776318     0.75140
O185        O  0.08796758  0.11450569  0.41682546    -0.58640
C186        C  0.13383673  0.99926059  0.40485635     0.75120
C187        C  0.06263593  0.03283009  0.46761936     0.77510
Cd188      Cd  0.12529419  0.06178036  0.43652737     1.37470
O189        O  0.19600187  0.06600962  0.45365995    -0.57480
O190        O  0.10010726  0.02111389  0.46769259    -0.56290
C191        C  0.12003404  0.12560604  0.40578890     0.77470
O192        O  0.05374646  0.05836582  0.45300984    -0.58660
O193        O  0.14903943  0.10373786  0.46738798    -0.57110
O194        O  0.10269362  0.02147819  0.40494663    -0.57100
O195        O  0.15336688  0.10689672  0.40887740    -0.56280
O196        O  0.16594172  0.35980934  0.33115704    -0.57480
C197        C  0.18795013  0.28347588  0.27737028     0.75140
O198        O  0.08858305  0.25737179  0.32632458    -0.58640
C199        C  0.13369051  0.37665922  0.33879186     0.75120
C200        C  0.06363681  0.34163228  0.27715252     0.77510
Cd201      Cd  0.12545520  0.31249180  0.30855340     1.37460
O202        O  0.19366045  0.31397106  0.28853573    -0.57480
O203        O  0.10200142  0.35042911  0.27578553    -0.56290
C204        C  0.11738282  0.25051075  0.34076041     0.77470
O205        O  0.05365476  0.31834816  0.29291874    -0.58660
O206        O  0.15321453  0.26694779  0.28061530    -0.57110
O207        O  0.09858554  0.36380773  0.33245891    -0.57100
O208        O  0.14860245  0.27257123  0.34011677    -0.56280
C209        C  0.08238212  0.16525011  0.37694308    -0.08830
C210        C  0.11877918  0.15830247  0.38984815     0.07370
C211        C  0.15382694  0.18214596  0.38676510    -0.02590
C212        C  0.15209962  0.21177537  0.37085138    -0.07040
C213        C  0.11604999  0.21856798  0.35751765     0.06480
C214        C  0.08075783  0.19476821  0.36073907    -0.02070
Br215      Br  0.02942602  0.20029875  0.34381337    -0.01760
H216        H  0.05526719  0.14704138  0.37910270     0.10400
H217        H  0.17955174  0.22962725  0.36892345     0.08410
Br218      Br  0.20448698  0.17723782  0.40446479    -0.02190
C219        C  0.16260256  0.40698988  0.37397367    -0.08830
C220        C  0.13635509  0.40918527  0.35465119     0.07370
C221        C  0.11076728  0.44136396  0.35165542    -0.02590
C222        C  0.11121653  0.47032790  0.36805174    -0.07040
C223        C  0.13655864  0.46796856  0.38781161     0.06480
C224        C  0.16257108  0.43574827  0.39069166    -0.02070
Br225      Br  0.19612732  0.42743854  0.41766852    -0.01760
H226        H  0.18190070  0.38199738  0.37657828     0.10400
H227        H  0.09136617  0.49490584  0.36528076     0.08410
Br228      Br  0.07560075  0.44794928  0.32509319    -0.02190
C229        C  0.01104935  0.38772044  0.22538954    -0.08830
C230        C  0.97066266  0.39473123  0.23404522     0.07370
C231        C  0.96116375  0.38389591  0.25687920    -0.02590
C232        C  0.99162141  0.36594755  0.27038588    -0.07040
C233        C  0.03195542  0.35878060  0.26171257     0.06480
C234        C  0.04152462  0.36974920  0.23889820    -0.02070
Br235      Br  0.09450958  0.35866788  0.22460655    -0.01760
H236        H  0.01862056  0.39526004  0.20778292     0.10400
H237        H  0.98400105  0.35837054  0.28797873     0.08410
Br238      Br  0.90816074  0.39495467  0.27114560    -0.02190
C239        C  0.83169587  0.32458835  0.13416809    -0.08830
C240        C  0.86965599  0.34388971  0.13818282     0.07370
C241        C  0.90596005  0.33189827  0.12610213    -0.02590
C242        C  0.90353797  0.30154922  0.11073107    -0.07040
C243        C  0.86577500  0.28226641  0.10674633     0.06480
C244        C  0.82944274  0.29407763  0.11865144    -0.02070
Br245      Br  0.77653762  0.26861863  0.11560672    -0.01760
H246        H  0.80352365  0.33304832  0.14326825     0.10400
H247        H  0.93178221  0.29297882  0.10170937     0.08410
Br248      Br  0.96061418  0.35439841  0.12946992    -0.02190
C249        C  0.85141015  0.03550772  0.12213576    -0.08830
C250        C  0.88423540  0.03247494  0.13822238     0.07370
C251        C  0.91678137  0.05985036  0.13761560    -0.02590
C252        C  0.91571124  0.08904197  0.12120388    -0.07040
C253        C  0.88235119  0.09221316  0.10562551     0.06480
C254        C  0.85012514  0.06494559  0.10607493    -0.02070
Br255      Br  0.80450732  0.06526369  0.08446396    -0.01760
H256        H  0.82624304  0.01483982  0.12197482     0.10400
H257        H  0.94051197  0.11008754  0.12104981     0.08410
Br258      Br  0.96299009  0.06039542  0.15880032    -0.02190
C259        C  0.04161896  0.25390415  0.00396239    -0.08830
C260        C  0.02942910  0.26646782  0.98199563     0.07370
C261        C  0.98732666  0.26155529  0.97511553    -0.02590
C262        C  0.95853959  0.24480076  0.99021378    -0.07040
C263        C  0.97072672  0.23226393  0.01218160     0.06480
C264        C  0.01279609  0.23722388  0.01908013    -0.02070
Br265      Br  0.03237149  0.22462276  0.04940396    -0.01760
H266        H  0.07372024  0.25773610  0.00962323     0.10400
H267        H  0.92640119  0.24107044  0.98458305     0.08410
Br268      Br  0.96747940  0.27466121  0.94492096    -0.02190
C269        C  0.08254101  0.46322862  0.86943224    -0.08830
C270        C  0.11659416  0.46694257  0.85429656     0.07370
C271        C  0.14961775  0.44047745  0.85542395    -0.02590
C272        C  0.14836275  0.41131054  0.87165396    -0.07040
C273        C  0.11480734  0.40773162  0.88727110     0.06480
C274        C  0.08149665  0.43428633  0.88602057    -0.02070
Br275      Br  0.03425491  0.43397306  0.90655398    -0.01760
H276        H  0.05715057  0.48369252  0.86881630     0.10400
H277        H  0.17417045  0.39127867  0.87199860     0.08410
Br278      Br  0.19650794  0.44150106  0.83459604    -0.02190
C279        C  0.16381534  0.18260042  0.85721624    -0.08830
C280        C  0.13080755  0.15609673  0.85792024     0.07370
C281        C  0.09930141  0.16044706  0.87496816    -0.02590
C282        C  0.10082953  0.19115610  0.89014862    -0.07040
C283        C  0.13344426  0.21771156  0.88923492     0.06480
C284        C  0.16535791  0.21320597  0.87265586    -0.02070
Br285      Br  0.20979229  0.24948107  0.86906766    -0.01760
H286        H  0.18815497  0.18003942  0.84428128     0.10400
H287        H  0.07629054  0.19419664  0.90295431     0.08410
Br288      Br  0.05344646  0.12568162  0.87937139    -0.02190
C289        C  0.76306296  0.10667761  0.01734243    -0.08830
C290        C  0.78311061  0.14074129  0.01133047     0.07370
C291        C  0.77358484  0.15821191  0.99017524    -0.02590
C292        C  0.74386387  0.14178557  0.97551699    -0.07040
C293        C  0.72375823  0.10772246  0.98152198     0.06480
C294        C  0.73322620  0.09030390  0.00272606    -0.02070
Br295      Br  0.70364598  0.04615771  0.01333723    -0.01760
H296        H  0.76992499  0.09326467  0.03369963     0.10400
H297        H  0.73676930  0.15540511  0.95924772     0.08410
Br298      Br  0.80232289  0.20306696  0.97998718    -0.02190
C299        C  0.60671467  0.14973391  0.86524477    -0.08830
C300        C  0.61362739  0.15693786  0.88868905     0.07370
C301        C  0.62040131  0.19445320  0.89613942    -0.02590
C302        C  0.62021056  0.22410706  0.88014000    -0.07040
C303        C  0.61292361  0.21711453  0.85665078     0.06480
C304        C  0.60597367  0.17944712  0.84922612    -0.02070
Br305      Br  0.59882486  0.16632435  0.81737186    -0.01760
H306        H  0.60227953  0.12079006  0.85934787     0.10400
H307        H  0.62622956  0.25279268  0.88607143     0.08410
Br308      Br  0.63351462  0.20623975  0.92760829    -0.02190
C309        C  0.66531690  0.44646153  0.88563018    -0.08830
C310        C  0.63066684  0.47120290  0.88631952     0.07370
C311        C  0.59699741  0.46473553  0.87089519    -0.02590
C312        C  0.59829191  0.43380646  0.85583127    -0.07040
C313        C  0.63266802  0.40900705  0.85533074     0.06480
C314        C  0.66654619  0.41557635  0.87039403    -0.02070
Br315      Br  0.71369814  0.38180978  0.87230597    -0.01760
H316        H  0.69129384  0.45058494  0.89737455     0.10400
H317        H  0.57216797  0.42924831  0.84422240     0.08410
Br318      Br  0.54844704  0.99697328  0.86859457    -0.02190
C319        C  0.23812706  0.14275469  0.51837994    -0.08830
C320        C  0.28026059  0.14336727  0.51137801     0.07370
C321        C  0.29116827  0.12697242  0.48994976    -0.02590
C322        C  0.26027334  0.11001552  0.47629573    -0.07040
C323        C  0.21818108  0.10924859  0.48334175     0.06480
C324        C  0.20722751  0.12576901  0.50471280    -0.02070
Br325      Br  0.15134869  0.12393574  0.51706107    -0.01760
H326        H  0.22927328  0.15466978  0.53488882     0.10400
H327        H  0.26914235  0.09802931  0.45980561     0.08410
Br328      Br  0.34705545  0.12854419  0.47755473    -0.02190
C329        C  0.29116894  0.00463802  0.75052217    -0.08830
C330        C  0.27784308  0.48458597  0.73089308     0.07370
C331        C  0.23439314  0.48147352  0.72661594    -0.02590
C332        C  0.20567332  0.49793761  0.74191385    -0.07040
C333        C  0.21905846  0.01799239  0.76152588     0.06480
C334        C  0.26249282  0.02110009  0.76579378    -0.02070
Br335      Br  0.28520281  0.04530565  0.79269493    -0.01760
H336        H  0.32434072  0.00714497  0.75427702     0.10400
H337        H  0.17247601  0.49543490  0.73822654     0.08410
Br338      Br  0.21178375  0.45709139  0.69976693    -0.02190
C339        C  0.45759029  0.37413228  0.75222987    -0.08830
C340        C  0.47119099  0.39206624  0.73192754     0.07370
C341        C  0.51458095  0.39293105  0.72705411    -0.02590
C342        C  0.54301957  0.37653578  0.74248354    -0.07040
C343        C  0.52942498  0.35868259  0.76282715     0.06480
C344        C  0.48600248  0.35769013  0.76764083    -0.02070
Br345      Br  0.46299138  0.33634122  0.79535124    -0.01760
H346        H  0.42445868  0.37331582  0.75638371     0.10400
H347        H  0.57614494  0.37732499  0.73831380     0.08410
Br348      Br  0.53737128  0.41390065  0.69918099    -0.02190
C349        C  0.33332513  0.32661265  0.63230345    -0.08830
C350        C  0.37182869  0.34326297  0.63837656     0.07370
C351        C  0.40906989  0.32859829  0.62849878    -0.02590
C352        C  0.40697482  0.29848919  0.61290076    -0.07040
C353        C  0.36854965  0.28207489  0.60665079     0.06480
C354        C  0.33133357  0.29638367  0.61661072    -0.02070
Br355      Br  0.27707804  0.27500537  0.61057522    -0.01760
H356        H  0.30443497  0.33721333  0.63975760     0.10400
H357        H  0.43594029  0.28782750  0.60554540     0.08410
Br358      Br  0.46439873  0.34662972  0.63587791    -0.02190
C359        C  0.39044296  0.02604212  0.61493191    -0.08830
C360        C  0.38696139  0.03363363  0.63858753     0.07370
C361        C  0.38344066  0.07151030  0.64615124    -0.02590
C362        C  0.38312034  0.10102276  0.63003936    -0.07040
C363        C  0.38693538  0.09348406  0.60638227     0.06480
C364        C  0.39082284  0.05559436  0.59883525    -0.02070
Br365      Br  0.39309464  0.04235008  0.56677754    -0.01760
H366        H  0.39248209  0.49692842  0.60893620     0.10400
H367        H  0.37947180  0.13002611  0.63600245     0.08410
Br368      Br  0.37536589  0.08427465  0.67800067    -0.02190
C369        C  0.28373182  0.27072272  0.23877434    -0.08830
C370        C  0.28039307  0.23216623  0.23270785     0.07370
C371        C  0.24622693  0.21098348  0.24130085    -0.02590
C372        C  0.21662004  0.22851739  0.25558095    -0.07040
C373        C  0.22003654  0.26705626  0.26172848     0.06480
C374        C  0.25406078  0.28830600  0.25297267    -0.02070
Br375      Br  0.26139622  0.34169545  0.25859808    -0.01760
H376        H  0.30938398  0.28767026  0.23211582     0.10400
H377        H  0.19097122  0.21155060  0.26221609     0.08410
Br378      Br  0.23878771  0.15773088  0.23532167    -0.02190
C379        C  0.20697202  0.37637870  0.00285769    -0.08830
C380        C  0.21999187  0.35880744  0.98233249     0.07370
C381        C  0.26315220  0.35810894  0.97695734    -0.02590
C382        C  0.29204294  0.37468107  0.99203097    -0.07040
C383        C  0.27905616  0.39236903  0.01255118     0.06480
C384        C  0.23587032  0.39278457  0.01800377    -0.02070
Br385      Br  0.21405096  0.41299832  0.04632715    -0.01760
H386        H  0.17398527  0.37685902  0.00737559     0.10400
H387        H  0.32499699  0.37417650  0.98744934     0.08410
Br388      Br  0.28477673  0.33732794  0.94874381    -0.02190
C389        C  0.47128487  0.02341082  0.00900105    -0.08830
C390        C  0.47027801  0.48374677  0.01189511     0.07370
C391        C  0.50019111  0.46131713  0.00017494    -0.02590
C392        C  0.53024626  0.47876077  0.98615324    -0.07040
C393        C  0.53112269  0.01838469  0.98322645     0.06480
C394        C  0.50131465  0.04081294  0.99494476    -0.02070
Br395      Br  0.50150585  0.09533356  0.99376344    -0.01760
H396        H  0.44897033  0.04119612  0.01807465     0.10400
H397        H  0.55265787  0.46105569  0.97708629     0.08410
Br398      Br  0.50050971  0.40677026  0.00132117    -0.02190
C399        C  0.41583498  0.30627982  0.13657342    -0.09220
C400        C  0.38274257  0.27987486  0.13591344     0.07370
C401        C  0.35078941  0.28469453  0.11922873    -0.02590
C402        C  0.35200270  0.31574064  0.10431216    -0.07040
C403        C  0.38469319  0.34224985  0.10518376     0.06480
C404        C  0.41701745  0.33729490  0.12144595    -0.02070
Br405      Br  0.46156566  0.37343347  0.12508902    -0.01760
H406        H  0.44045551  0.30337977  0.14929430     0.10400
H407        H  0.32716635  0.31905398  0.09173522     0.08410
Br408      Br  0.30484047  0.25000496  0.11496817    -0.02190
C409        C  0.33210714  0.08456829  0.12693291    -0.08830
C410        C  0.36928810  0.09293660  0.13879249     0.07370
C411        C  0.40495627  0.07009976  0.13502723    -0.02590
C412        C  0.40310271  0.04014078  0.11935337    -0.07040
C413        C  0.36625428  0.03198639  0.10702791     0.06480
C414        C  0.33027812  0.05461533  0.11104175    -0.02070
Br415      Br  0.27751542  0.04637232  0.09594579    -0.01760
H416        H  0.30443358  0.10185252  0.12975981     0.10400
H417        H  0.43105065  0.02311341  0.11680457     0.08410
Br418      Br  0.45663586  0.07668824  0.15160045    -0.02190
C419        C  0.01017224  0.48698251  0.51946334    -0.08830
C420        C  0.96873593  0.48317916  0.51165725     0.07370
C421        C  0.95845874  0.49626167  0.48935050    -0.02590
C422        C  0.98929805  0.01307113  0.47554218    -0.07040
C423        C  0.03073107  0.01674768  0.48333587     0.06480
C424        C  0.04101278  0.00370685  0.50563035    -0.02070
Br425      Br  0.09579299  0.01012393  0.51881604    -0.01760
H426        H  0.01847222  0.47765949  0.53664411     0.10400
H427        H  0.98105989  0.02241802  0.45835672     0.08410
Br428      Br  0.90380286  0.48974949  0.47602930    -0.02190
C429        C  0.70783851  0.25447361  0.74107071    -0.08830
C430        C  0.72072150  0.26785735  0.76274356     0.07370
C431        C  0.76339639  0.26489398  0.76886133    -0.02590
C432        C  0.79205211  0.24904472  0.75332755    -0.07040
C433        C  0.77912493  0.23552504  0.73169450     0.06480
C434        C  0.73648845  0.23864273  0.72553765    -0.02070
Br435      Br  0.71566574  0.22429182  0.69575023    -0.01760
H436        H  0.67523688  0.25685141  0.73599797     0.10400
H437        H  0.82464217  0.24659022  0.75841139     0.08410
Br438      Br  0.78423426  0.27928368  0.79863272    -0.02190
C439        C  0.99005892  0.11632779  0.76941036    -0.08830
C440        C  0.02998580  0.10782605  0.76065304     0.07370
C441        C  0.03918438  0.11646997  0.73746778    -0.02590
C442        C  0.00876452  0.13376075  0.72360724    -0.07040
C443        C  0.96882697  0.14235308  0.73237480     0.06480
C444        C  0.95966985  0.13369522  0.75558652    -0.02070
Br445      Br  0.90746467  0.14745185  0.76988406    -0.01760
H446        H  0.98284607  0.11043520  0.78729174     0.10400
H447        H  0.01603324  0.13968072  0.70573772     0.08410
Br448      Br  0.09163755  0.10290213  0.72340021    -0.02190
C449        C  0.89888954  0.31718730  0.64436201    -0.08830
C450        C  0.88482418  0.28134737  0.63705927     0.07370
C451        C  0.87243530  0.27638269  0.61386734    -0.02590
C452        C  0.87409112  0.30704819  0.59860169    -0.07040
C453        C  0.88686858  0.34296188  0.60615989     0.06480
C454        C  0.89929107  0.34806174  0.62918414    -0.02070
Br455      Br  0.91705078  0.39668694  0.64049810    -0.01760
H456        H  0.90833209  0.32149155  0.66208586     0.10400
H457        H  0.86424636  0.30310376  0.58090423     0.08410
Br458      Br  0.85381933  0.22844884  0.60175428    -0.02190
C459        C  0.90270411  0.08604288  0.62506519    -0.08830
C460        C  0.86649413  0.09304177  0.63826160     0.07370
C461        C  0.83082391  0.06988807  0.63459470    -0.02590
C462        C  0.83232815  0.04067359  0.61817426    -0.07040
C463        C  0.86887749  0.03351270  0.60539732     0.06480
C464        C  0.90423200  0.05683993  0.60885178    -0.02070
Br465      Br  0.95506674  0.05193581  0.59124396    -0.01760
H466        H  0.93037426  0.10352676  0.62724563     0.10400
H467        H  0.80495840  0.02288788  0.61572521     0.08410
Br468      Br  0.77911101  0.07587442  0.65117831    -0.02190
C469        C  0.50730531  0.29004093  0.49695933    -0.08830
C470        C  0.53057442  0.26580745  0.48261879     0.07370
C471        C  0.52369127  0.22621571  0.48391289    -0.02590
C472        C  0.49432992  0.21171200  0.49950960    -0.07040
C473        C  0.47095874  0.23595176  0.51376466     0.06480
C474        C  0.47791274  0.27550267  0.51254849    -0.02070
Br475      Br  0.45053144  0.31083375  0.53282266    -0.01760
H476        H  0.51268100  0.32042996  0.49641817     0.10400
H477        H  0.48890000  0.18132803  0.50004658     0.08410
Br478      Br  0.55091466  0.19061327  0.46373168    -0.02190
C479        C  0.79216692  0.37071881  0.49394656    -0.08830
C480        C  0.77856223  0.39096065  0.51345776     0.07370
C481        C  0.73510562  0.39416658  0.51764012    -0.02590
C482        C  0.70658558  0.37750991  0.50238970    -0.07040
C483        C  0.72017988  0.35726516  0.48287127     0.06480
C484        C  0.76366233  0.35413853  0.47866321    -0.02070
Br485      Br  0.78665951  0.32977278  0.45185507    -0.01760
H486        H  0.82539621  0.36821039  0.49029532     0.10400
H487        H  0.67336213  0.38009342  0.50602624     0.08410
Br488      Br  0.71225005  0.41891384  0.54434051    -0.02190
C489        C  0.48396535  0.10437503  0.22839423    -0.08830
C490        C  0.47050430  0.14186125  0.23222100     0.07370
C491        C  0.48719584  0.16246377  0.25087550    -0.02590
C492        C  0.51721815  0.14559259  0.26514231    -0.07040
C493        C  0.53063663  0.10809871  0.26134413     0.06480
C494        C  0.51401519  0.08750675  0.24266763    -0.02070
Br495      Br  0.53358744  0.03754918  0.23485390    -0.01760
H496        H  0.47162807  0.08838604  0.21396072     0.10400
H497        H  0.52955283  0.16159386  0.27957137     0.08410
Br498      Br  0.46778152  0.21247465  0.25870364    -0.02190
C499        C  0.73046450  0.47976199  0.26400406    -0.08830
C500        C  0.71823312  0.01775566  0.26088056     0.07370
C501        C  0.73621003  0.03894310  0.24281770    -0.02590
C502        C  0.76655408  0.02223190  0.22861412    -0.07040
C503        C  0.77897078  0.48430291  0.23183281     0.06480
C504        C  0.76070908  0.46301604  0.24977528    -0.02070
Br505      Br  0.77814888  0.41209667  0.25679605    -0.01760
H506        H  0.71707461  0.46323295  0.27792755     0.10400
H507        H  0.78000502  0.03876278  0.21471125     0.08410
Br508      Br  0.71825467  0.08965346  0.23568696    -0.02190
C509        C  0.66445056  0.19432974  0.38695523    -0.08830
C510        C  0.63015145  0.21955879  0.38692314     0.07370
C511        C  0.59726802  0.21326297  0.37095759    -0.02590
C512        C  0.59902321  0.18216596  0.35606967    -0.07040
C513        C  0.63306932  0.15700726  0.35623861     0.06480
C514        C  0.66617163  0.16332443  0.37181474    -0.02070
Br515      Br  0.71286274  0.12917829  0.37438679    -0.01760
H516        H  0.68988652  0.19831324  0.39906634     0.10400
H517        H  0.57350138  0.17776063  0.34404049     0.08410
Br518      Br  0.54882652  0.24546064  0.36781848    -0.02190
C519        C  0.58210631  0.42855349  0.38508613    -0.08830
C520        C  0.61916163  0.40722853  0.38775021     0.07370
C521        C  0.65478061  0.41746342  0.37451078    -0.02590
C522        C  0.65265864  0.44826317  0.35945596    -0.07040
C523        C  0.61578781  0.46949611  0.35683892     0.06480
C524        C  0.58011658  0.45937521  0.36981484    -0.02070
Br525      Br  0.52877397  0.48776403  0.36859158    -0.01760
H526        H  0.55449370  0.42148901  0.39508218     0.10400
H527        H  0.68029722  0.45553818  0.34950812     0.08410
Br528      Br  0.70795522  0.39162980  0.37564788    -0.02190
O529        O  0.58503246  0.51303899  0.32937610    -0.57480
C530        C  0.56236412  0.59174486  0.27689200     0.75140
O531        O  0.66411273  0.61157704  0.33010074    -0.58640
C532        C  0.61677472  0.50200907  0.34071393     0.75120
C533        C  0.68653640  0.53405221  0.27657261     0.77510
Cd534      Cd  0.62448723  0.56286300  0.30813298     1.37470
O535        O  0.55943713  0.55839044  0.28499482    -0.57480
O536        O  0.65535626  0.51464922  0.28300941    -0.56290
C537        C  0.63183681  0.62430120  0.34032107     0.77470
O538        O  0.68932785  0.56743342  0.28465058    -0.58660
O539        O  0.59374374  0.61104888  0.28312591    -0.57110
O540        O  0.65069763  0.51961260  0.33707763    -0.57100
O541        O  0.59737282  0.60824173  0.33574834    -0.56280
O542        O  0.55713807  0.81440237  0.45741174    -0.57480
C543        C  0.61987958  0.87516484  0.40442319     0.75140
O544        O  0.69564831  0.81369153  0.45360123    -0.58640
C545        C  0.56228161  0.78233233  0.46697907     0.75120
C546        C  0.62922739  0.75128352  0.40383925     0.77510
Cd547      Cd  0.62472813  0.81275914  0.43639308     1.37460
O548        O  0.58857624  0.86674264  0.41693765    -0.57480
O549        O  0.59782859  0.77292882  0.40579908    -0.56290
C550        C  0.68813643  0.84100979  0.46722423     0.77470
O551        O  0.65964665  0.75807781  0.41731599    -0.58660
O552        O  0.65196704  0.85464809  0.40701928    -0.57110
O553        O  0.59632826  0.76531646  0.46271292    -0.57100
O554        O  0.65116096  0.85399825  0.46692703    -0.56280
O555        O  0.80256830  0.69266965  0.70190768    -0.57480
C556        C  0.86781358  0.62494218  0.65505525     0.75140
O557        O  0.90818616  0.74627983  0.67019822    -0.58640
C558        C  0.81094659  0.71900053  0.71607834     0.75120
C559        C  0.93701571  0.65886906  0.71682187     0.77510
Cd560      Cd  0.87432935  0.68849380  0.68606372     1.37460
O561        O  0.83787146  0.63317004  0.66854332    -0.57480
O562        O  0.89881616  0.64952499  0.71816899    -0.56290
C563        C  0.88192996  0.75017532  0.65397766     0.77470
O564        O  0.94660997  0.68240175  0.70114843    -0.58660
O565        O  0.89994996  0.64583185  0.65650168    -0.57110
O566        O  0.84854074  0.73039994  0.71650839    -0.57100
O567        O  0.85253819  0.72620264  0.65314943    -0.56280
O568        O  0.83773809  0.98978983  0.57847660    -0.57480
C569        C  0.81062405  0.90743502  0.52899187     0.75140
O570        O  0.94661683  0.94248411  0.54263436    -0.58640
C571        C  0.87000746  0.00100370  0.58929428     0.75120
C572        C  0.88413507  0.87511001  0.59020406     0.77510
Cd573      Cd  0.87501516  0.93718648  0.55868717     1.37460
O574        O  0.80347929  0.93554703  0.54208063    -0.57480
O575        O  0.85767673  0.90130208  0.59337036    -0.56290
C576        C  0.93698490  0.96671182  0.52736293     0.77470
O577        O  0.90723310  0.87754686  0.57251074    -0.58660
O578        O  0.84736050  0.89397085  0.52959823    -0.57110
O579        O  0.90342355  0.98249929  0.58591450    -0.57100
O580        O  0.89894083  0.97676103  0.52664837    -0.56280
O581        O  0.41501503  0.88931283  0.07999792    -0.57480
C582        C  0.43794883  0.96723943  0.02728146     0.75140
O583        O  0.30339095  0.93505081  0.04230071    -0.58640
C584        C  0.38279047  0.87505003  0.08939297     0.75120
C585        C  0.36743012  0.99988282  0.09043923     0.77510
Cd586      Cd  0.37505517  0.93809679  0.05826104     1.37460
O587        O  0.44268343  0.93569114  0.03746012    -0.57480
O588        O  0.39818403  0.97720534  0.09016416    -0.56290
C589        C  0.31140773  0.90902924  0.02785516     0.77470
O590        O  0.33900924  0.99367596  0.07568006    -0.58660
O591        O  0.40406594  0.98471679  0.03132857    -0.57110
O592        O  0.34794456  0.88985638  0.08421758    -0.57100
O593        O  0.34908672  0.89780284  0.02701662    -0.56280
O594        O  0.30672076  0.68621850  0.20526283    -0.57480
C595        C  0.37047338  0.62562897  0.15468795     0.75140
O596        O  0.41314394  0.73985651  0.16529943    -0.58640
C597        C  0.31280144  0.71571894  0.21731555     0.75120
C598        C  0.43863296  0.65828313  0.21678558     0.77510
Cd599      Cd  0.37601758  0.68796988  0.18612419     1.37470
O600        O  0.33898359  0.63525706  0.16673696    -0.57480
O601        O  0.40719262  0.63904100  0.21055205    -0.56290
C602        C  0.38162218  0.74865374  0.15308364     0.77470
O603        O  0.44139278  0.69178038  0.20889242    -0.58660
O604        O  0.40320895  0.64556136  0.15686264    -0.57110
O605        O  0.34824746  0.73139296  0.21515039    -0.57100
O606        O  0.34874590  0.72959839  0.15661173    -0.56280
O607        O  0.44751416  0.93485917  0.70204222    -0.57480
C608        C  0.38417039  0.00157048  0.65474371     0.75140
O609        O  0.34111204  0.88346036  0.66761279    -0.58640
C610        C  0.43922815  0.90874080  0.71634529     0.75120
C611        C  0.31026392  0.96821405  0.71542027     0.77510
Cd612      Cd  0.37577054  0.93887953  0.68599792     1.37470
O613        O  0.40604915  0.99981712  0.67291832    -0.57480
O614        O  0.34740203  0.98071838  0.71568177    -0.56290
C615        C  0.37219341  0.87567126  0.65474480     0.77470
O616        O  0.30311754  0.94114258  0.70155922    -0.58660
O617        O  0.35939673  0.97427728  0.65097625    -0.57110
O618        O  0.40154300  0.89756416  0.71687078    -0.57100
O619        O  0.40354761  0.89738665  0.65646975    -0.56280
O620        O  0.40855984  0.62894507  0.57306403    -0.57480
C621        C  0.43879822  0.71938864  0.52906665     0.75140
O622        O  0.30327130  0.68496378  0.54184163    -0.58640
C623        C  0.38392895  0.62534152  0.59004926     0.75120
C624        C  0.36933730  0.74983102  0.59023002     0.77510
Cd625      Cd  0.37512581  0.68767580  0.55845919     1.37460
O626        O  0.44438221  0.68795458  0.53927254    -0.57480
O627        O  0.40219582  0.73000632  0.58779754    -0.56290
C628        C  0.31210214  0.65953740  0.52713897     0.77470
O629        O  0.33829889  0.74086069  0.57769614    -0.58660
O630        O  0.40383981  0.73551875  0.53225264    -0.57110
O631        O  0.35620974  0.65067114  0.59249562    -0.57100
O632        O  0.34952199  0.64790442  0.52707144    -0.56280
O633        O  0.66264990  0.51253218  0.91453615    -0.57480
C634        C  0.69163803  0.59209652  0.96599282     0.75140
O635        O  0.59355649  0.62240607  0.92251791    -0.58640
C636        C  0.63009559  0.50252452  0.90349719     0.75120
C637        C  0.56329064  0.53491694  0.96782094     0.77510
Cd638      Cd  0.62620967  0.56332358  0.93655614     1.37460
O639        O  0.69162892  0.55769839  0.95954232    -0.57480
O640        O  0.59847687  0.51897311  0.96520499    -0.56290
C641        C  0.61662507  0.62484434  0.90476795     0.77470
O642        O  0.55711817  0.56481748  0.95615551    -0.58660
O643        O  0.66240330  0.61280641  0.95848307    -0.57110
O644        O  0.59685222  0.52048719  0.90817508    -0.57100
O645        O  0.64299598  0.59851941  0.90150995    -0.56280
O646        O  0.66320490  0.86313498  0.82933216    -0.57480
C647        C  0.68868809  0.78363842  0.77852136     0.75140
O648        O  0.59226169  0.75214904  0.82283372    -0.58640
C649        C  0.63104814  0.87614438  0.83949921     0.75120
C650        C  0.56137300  0.84217257  0.77850485     0.77510
Cd651      Cd  0.62454014  0.81211397  0.80897956     1.37460
O652        O  0.69659137  0.80965098  0.79296984    -0.57480
O653        O  0.59920731  0.85299364  0.77776818    -0.56290
C654        C  0.61558135  0.74925981  0.84038863     0.77470
O655        O  0.55286743  0.81659523  0.79314298    -0.58660
O656        O  0.65131840  0.77176265  0.77800153    -0.57110
O657        O  0.59659276  0.85984298  0.83520230    -0.57100
O658        O  0.64173399  0.77567815  0.84351288    -0.56280
O659        O  0.16016798  0.61756556  0.82740181    -0.57480
C660        C  0.18695711  0.53433620  0.77717008     0.75140
O661        O  0.08611561  0.51111566  0.82755423    -0.58640
C662        C  0.12953017  0.62504251  0.84059698     0.75120
C663        C  0.06182783  0.59173676  0.77630085     0.77510
Cd664      Cd  0.12389497  0.56353445  0.80789333     1.37470
O665        O  0.19433957  0.56228655  0.79035565    -0.57480
O666        O  0.09949529  0.60291231  0.77584575    -0.56290
C667        C  0.11817915  0.49945210  0.83832878     0.77470
O668        O  0.05265414  0.56689747  0.79127993    -0.58660
O669        O  0.15015512  0.52088584  0.77788864    -0.57110
O670        O  0.09743296  0.60462471  0.83800245    -0.57100
O671        O  0.15188265  0.51746629  0.83500426    -0.56280
O672        O  0.08802306  0.86948209  0.91888279    -0.57480
C673        C  0.06147596  0.78354620  0.96668629     0.75140
O674        O  0.16393758  0.76393084  0.91489221    -0.58640
C675        C  0.11654764  0.87612621  0.90423846     0.75120
C676        C  0.18774318  0.84258916  0.96685724     0.77510
Cd677      Cd  0.12443704  0.81371427  0.93616580     1.37470
O678        O  0.05266487  0.80874772  0.95185833    -0.57480
O679        O  0.15104312  0.85623284  0.96619962    -0.56290
C680        C  0.13172226  0.75032468  0.90517334     0.77470
O681        O  0.19492025  0.81453864  0.95374447    -0.58660
O682        O  0.09956747  0.77358241  0.96788925    -0.57110
O683        O  0.14763935  0.85389068  0.90469824    -0.57100
O684        O  0.09705169  0.76571959  0.91008472    -0.56280
O685        O  0.83890456  0.88522485  0.16692108    -0.57480
C686        C  0.81148651  0.96817232  0.21659307     0.75140
O687        O  0.94793669  0.93462749  0.20278838    -0.58640
C688        C  0.87053910  0.87588331  0.15491479     0.75120
C689        C  0.88262441  0.00065228  0.15504339     0.77510
Cd690      Cd  0.87579453  0.93845390  0.18687931     1.37460
O691        O  0.80927666  0.93468017  0.20862964    -0.57480
O692        O  0.85204673  0.97773070  0.15512257    -0.56290
C693        C  0.93864233  0.91115544  0.21853627     0.77470
O694        O  0.91085889  0.99460126  0.16996040    -0.58660
O695        O  0.84303029  0.98761357  0.21067053    -0.57110
O696        O  0.90308708  0.89553410  0.15800704    -0.57100
O697        O  0.90059372  0.90144192  0.21981038    -0.56280
O698        O  0.94687657  0.69045026  0.04245517    -0.57480
C699        C  0.88077356  0.62475486  0.08971417     0.75140
O700        O  0.83512027  0.73840189  0.07929019    -0.58640
C701        C  0.93853723  0.71570347  0.02759144     0.75120
C702        C  0.81410207  0.65715764  0.02721197     0.77510
Cd703      Cd  0.87493750  0.68759177  0.05856161     1.37470
O704        O  0.91278824  0.63599225  0.07867333    -0.57480
O705        O  0.84513408  0.63788792  0.03408397    -0.56290
C706        C  0.86674432  0.74972119  0.09056735     0.77470
O707        O  0.81094441  0.69087232  0.03475217    -0.58660
O708        O  0.84709655  0.64301679  0.08659450    -0.57110
O709        O  0.90072247  0.72633837  0.02648428    -0.57100
O710        O  0.90061626  0.73210912  0.08694893    -0.56280
O711        O  0.16193487  0.50587796  0.41973535    -0.57480
C712        C  0.18660482  0.59222817  0.46776318     0.75140
O713        O  0.08796757  0.61450569  0.41682546    -0.58640
C714        C  0.13383673  0.49926059  0.40485635     0.75120
C715        C  0.06263592  0.53283009  0.46761936     0.77510
Cd716      Cd  0.12529418  0.56178036  0.43652737     1.37470
O717        O  0.19600187  0.56600963  0.45365995    -0.57480
O718        O  0.10010725  0.52111389  0.46769258    -0.56290
C719        C  0.12003403  0.62560604  0.40578890     0.77470
O720        O  0.05374646  0.55836583  0.45300985    -0.58660
O721        O  0.14903942  0.60373786  0.46738798    -0.57110
O722        O  0.10269361  0.52147820  0.40494662    -0.57100
O723        O  0.15336687  0.60689674  0.40887740    -0.56280
O724        O  0.16594172  0.85980934  0.33115705    -0.57480
C725        C  0.18795013  0.78347589  0.27737028     0.75140
O726        O  0.08858305  0.75737179  0.32632458    -0.58640
C727        C  0.13369052  0.87665922  0.33879186     0.75120
C728        C  0.06363681  0.84163228  0.27715252     0.77510
Cd729      Cd  0.12545519  0.81249181  0.30855340     1.37460
O730        O  0.19366045  0.81397107  0.28853573    -0.57480
O731        O  0.10200141  0.85042912  0.27578553    -0.56290
C732        C  0.11738282  0.75051075  0.34076041     0.77470
O733        O  0.05365476  0.81834816  0.29291874    -0.58660
O734        O  0.15321453  0.76694779  0.28061530    -0.57110
O735        O  0.09858554  0.86380774  0.33245891    -0.57100
O736        O  0.14860245  0.77257123  0.34011677    -0.56280
C737        C  0.08238211  0.66525011  0.37694308    -0.08830
C738        C  0.11877916  0.65830248  0.38984815     0.07370
C739        C  0.15382692  0.68214598  0.38676511    -0.02590
C740        C  0.15209960  0.71177539  0.37085139    -0.07040
C741        C  0.11604998  0.71856799  0.35751765     0.06480
C742        C  0.08075783  0.69476821  0.36073906    -0.02070
Br743      Br  0.02942603  0.70029872  0.34381334    -0.01760
H744        H  0.05526719  0.64704137  0.37910269     0.10400
H745        H  0.17955171  0.72962728  0.36892347     0.08410
Br746      Br  0.20448695  0.67723785  0.40446482    -0.02190
C747        C  0.16260255  0.90698987  0.37397368    -0.08830
C748        C  0.13635509  0.90918526  0.35465119     0.07370
C749        C  0.11076729  0.94136396  0.35165542    -0.02590
C750        C  0.11121654  0.97032790  0.36805174    -0.07040
C751        C  0.13655864  0.96796855  0.38781161     0.06480
C752        C  0.16257107  0.93574826  0.39069167    -0.02070
Br753      Br  0.19612730  0.92743852  0.41766853    -0.01760
H754        H  0.18190069  0.88199736  0.37657829     0.10400
H755        H  0.09136618  0.99490585  0.36528076     0.08410
Br756      Br  0.07560078  0.94794929  0.32509319    -0.02190
C757        C  0.01104935  0.88772046  0.22538955    -0.08830
C758        C  0.97066265  0.89473123  0.23404522     0.07370
C759        C  0.96116373  0.88389589  0.25687920    -0.02590
C760        C  0.99162140  0.86594753  0.27038588    -0.07040
C761        C  0.03195541  0.85878060  0.26171257     0.06480
C762        C  0.04152461  0.86974922  0.23889820    -0.02070
Br763      Br  0.09450959  0.85866792  0.22460655    -0.01760
H764        H  0.01862056  0.89526007  0.20778293     0.10400
H765        H  0.98400104  0.85837052  0.28797873     0.08410
Br766      Br  0.90816071  0.89495463  0.27114560    -0.02190
C767        C  0.83169586  0.82458835  0.13416809    -0.08830
C768        C  0.86965598  0.84388971  0.13818282     0.07370
C769        C  0.90596003  0.83189828  0.12610213    -0.02590
C770        C  0.90353796  0.80154923  0.11073106    -0.07040
C771        C  0.86577500  0.78226642  0.10674632     0.06480
C772        C  0.82944273  0.79407763  0.11865144    -0.02070
Br773      Br  0.77653761  0.76861863  0.11560672    -0.01760
H774        H  0.80352364  0.83304832  0.14326825     0.10400
H775        H  0.93178220  0.79297884  0.10170936     0.08410
Br776      Br  0.96061416  0.85439843  0.12946991    -0.02190
C777        C  0.85141016  0.53550771  0.12213575    -0.08830
C778        C  0.88423540  0.53247495  0.13822238     0.07370
C779        C  0.91678136  0.55985038  0.13761560    -0.02590
C780        C  0.91571123  0.58904198  0.12120388    -0.07040
C781        C  0.88235119  0.59221317  0.10562550     0.06480
C782        C  0.85012515  0.56494558  0.10607492    -0.02070
Br783      Br  0.80450735  0.56526366  0.08446394    -0.01760
H784        H  0.82624306  0.51483980  0.12197480     0.10400
H785        H  0.94051195  0.61008756  0.12104982     0.08410
Br786      Br  0.96299006  0.56039546  0.15880034    -0.02190
C787        C  0.04161895  0.75390419  0.00396240    -0.08830
C788        C  0.02942910  0.76646783  0.98199563     0.07370
C789        C  0.98732667  0.76155525  0.97511551    -0.02590
C790        C  0.95853960  0.74480073  0.99021377    -0.07040
C791        C  0.97072672  0.73226393  0.01218159     0.06480
C792        C  0.01279609  0.73722392  0.01908014    -0.02070
Br793      Br  0.03237146  0.72462285  0.04940397    -0.01760
H794        H  0.07372022  0.75773616  0.00962324     0.10400
H795        H  0.92640121  0.74107038  0.98458303     0.08410
Br796      Br  0.96747942  0.77466112  0.94492094    -0.02190
C797        C  0.08254100  0.96322862  0.86943223    -0.08830
C798        C  0.11659416  0.96694258  0.85429656     0.07370
C799        C  0.14961776  0.94047748  0.85542396    -0.02590
C800        C  0.14836276  0.91131057  0.87165397    -0.07040
C801        C  0.11480734  0.90773163  0.88727109     0.06480
C802        C  0.08149664  0.93428633  0.88602056    -0.02070
Br803      Br  0.03425487  0.93397304  0.90655395    -0.01760
H804        H  0.05715055  0.98369250  0.86881629     0.10400
H805        H  0.17417048  0.89127871  0.87199861     0.08410
Br806      Br  0.19650797  0.94150111  0.83459607    -0.02190
C807        C  0.16381535  0.68260040  0.85721626    -0.08830
C808        C  0.13080754  0.65609672  0.85792025     0.07370
C809        C  0.09930138  0.66044706  0.87496816    -0.02590
C810        C  0.10082951  0.69115611  0.89014862    -0.07040
C811        C  0.13344426  0.71771156  0.88923492     0.06480
C812        C  0.16535792  0.71320595  0.87265587    -0.02070
Br813      Br  0.20979232  0.74948103  0.86906768    -0.01760
H814        H  0.18815499  0.68003939  0.84428130     0.10400
H815        H  0.07629051  0.69419667  0.90295429     0.08410
Br816      Br  0.05344641  0.62568166  0.87937137    -0.02190
C817        C  0.76306293  0.60667763  0.01734244    -0.08830
C818        C  0.78311061  0.64074130  0.01133047     0.07370
C819        C  0.77358487  0.65821190  0.99017523    -0.02590
C820        C  0.74386389  0.64178556  0.97551698    -0.07040
C821        C  0.72375823  0.60772247  0.98152198     0.06480
C822        C  0.73322617  0.59030392  0.00272607    -0.02070
Br823      Br  0.70364591  0.54615776  0.01333725    -0.01760
H824        H  0.76992494  0.59326471  0.03369965     0.10400
H825        H  0.73676934  0.65540509  0.95924771     0.08410
Br826      Br  0.80232295  0.70306693  0.97998716    -0.02190
C827        C  0.60671472  0.64973391  0.86524477    -0.08830
C828        C  0.61362741  0.65693787  0.88868905     0.07370
C829        C  0.62040131  0.69445321  0.89613941    -0.02590
C830        C  0.62021057  0.72410707  0.88013999    -0.07040
C831        C  0.61292364  0.71711453  0.85665078     0.06480
C832        C  0.60597372  0.67944712  0.84922611    -0.02070
Br833      Br  0.59882494  0.66632435  0.81737186    -0.01760
H834        H  0.60227960  0.62079006  0.85934787     0.10400
H835        H  0.62622956  0.75279269  0.88607143     0.08410
Br836      Br  0.63351459  0.70623977  0.92760829    -0.02190
C837        C  0.66531691  0.94646156  0.88563016    -0.08830
C838        C  0.63066683  0.97120290  0.88631952     0.07370
C839        C  0.59699738  0.96473549  0.87089521    -0.02590
C840        C  0.59829188  0.93380643  0.85583129    -0.07040
C841        C  0.63266802  0.90900705  0.85533073     0.06480
C842        C  0.66654621  0.91557638  0.87039401    -0.02070
Br843      Br  0.71369821  0.88180986  0.87230592    -0.01760
H844        H  0.69129388  0.95058500  0.89737452     0.10400
H845        H  0.57216792  0.92924825  0.84422243     0.08410
Br846      Br  0.54844713  0.49697337  0.86859452    -0.02190
C847        C  0.23812706  0.64275468  0.51837995    -0.08830
C848        C  0.28026059  0.64336727  0.51137801     0.07370
C849        C  0.29116827  0.62697242  0.48994975    -0.02590
C850        C  0.26027333  0.61001552  0.47629572    -0.07040
C851        C  0.21818107  0.60924859  0.48334175     0.06480
C852        C  0.20722751  0.62576900  0.50471280    -0.02070
Br853      Br  0.15134869  0.62393572  0.51706107    -0.01760
H854        H  0.22927328  0.65466976  0.53488882     0.10400
H855        H  0.26914234  0.59802932  0.45980561     0.08410
Br856      Br  0.34705544  0.62854420  0.47755472    -0.02190
C857        C  0.29116894  0.50463805  0.75052216    -0.08830
C858        C  0.27784308  0.98458596  0.73089309     0.07370
C859        C  0.23439315  0.98147353  0.72661594    -0.02590
C860        C  0.20567333  0.99793762  0.74191384    -0.07040
C861        C  0.21905846  0.51799240  0.76152587     0.06480
C862        C  0.26249282  0.52110012  0.76579376    -0.02070
Br863      Br  0.28520282  0.54530571  0.79269491    -0.01760
H864        H  0.32434072  0.50714502  0.75427700     0.10400
H865        H  0.17247602  0.99543493  0.73822653     0.08410
Br866      Br  0.21178375  0.95709143  0.69976692    -0.02190
C867        C  0.45759029  0.87413224  0.75222986    -0.08830
C868        C  0.47119099  0.89206621  0.73192753     0.07370
C869        C  0.51458095  0.89293102  0.72705410    -0.02590
C870        C  0.54301957  0.87653576  0.74248353    -0.07040
C871        C  0.52942498  0.85868256  0.76282714     0.06480
C872        C  0.48600249  0.85769009  0.76764082    -0.02070
Br873      Br  0.46299139  0.83634116  0.79535122    -0.01760
H874        H  0.42445868  0.87331577  0.75638370     0.10400
H875        H  0.57614494  0.87732497  0.73831379     0.08410
Br876      Br  0.53737128  0.91390062  0.69918098    -0.02190
C877        C  0.33332512  0.82661265  0.63230345    -0.08830
C878        C  0.37182869  0.84326297  0.63837656     0.07370
C879        C  0.40906988  0.82859829  0.62849877    -0.02590
C880        C  0.40697481  0.79848920  0.61290075    -0.07040
C881        C  0.36854964  0.78207489  0.60665078     0.06480
C882        C  0.33133356  0.79638367  0.61661071    -0.02070
Br883      Br  0.27707804  0.77500537  0.61057522    -0.01760
H884        H  0.30443496  0.83721333  0.63975760     0.10400
H885        H  0.43594028  0.78782752  0.60554538     0.08410
Br886      Br  0.46439872  0.84662973  0.63587789    -0.02190
C887        C  0.39044302  0.52604213  0.61493190    -0.08830
C888        C  0.38696140  0.53363364  0.63858752     0.07370
C889        C  0.38344062  0.57151031  0.64615124    -0.02590
C890        C  0.38312030  0.60102276  0.63003936    -0.07040
C891        C  0.38693539  0.59348407  0.60638227     0.06480
C892        C  0.39082290  0.55559437  0.59883525    -0.02070
Br893      Br  0.39309477  0.54235009  0.56677754    -0.01760
H894        H  0.39248200  0.99692841  0.60893620     0.10400
H895        H  0.37947173  0.63002611  0.63600244     0.08410
Br896      Br  0.37536579  0.58427465  0.67800066    -0.02190
C897        C  0.28373182  0.77072272  0.23877434    -0.08830
C898        C  0.28039307  0.73216623  0.23270785     0.07370
C899        C  0.24622693  0.71098348  0.24130085    -0.02590
C900        C  0.21662005  0.72851739  0.25558095    -0.07040
C901        C  0.22003655  0.76705626  0.26172848     0.06480
C902        C  0.25406077  0.78830600  0.25297267    -0.02070
Br903      Br  0.26139621  0.84169546  0.25859808    -0.01760
H904        H  0.30938398  0.78767026  0.23211582     0.10400
H905        H  0.19097123  0.71155060  0.26221610     0.08410
Br906      Br  0.23878773  0.65773088  0.23532168    -0.02190
C907        C  0.20697202  0.87637869  0.00285769    -0.08830
C908        C  0.21999187  0.85880744  0.98233248     0.07370
C909        C  0.26315219  0.85810896  0.97695732    -0.02590
C910        C  0.29204293  0.87468110  0.99203096    -0.07040
C911        C  0.27905616  0.89236903  0.01255118     0.06480
C912        C  0.23587032  0.89278456  0.01800377    -0.02070
Br913      Br  0.21405096  0.91299828  0.04632715    -0.01760
H914        H  0.17398527  0.87685900  0.00737559     0.10400
H915        H  0.32499698  0.87417653  0.98744933     0.08410
Br916      Br  0.28477672  0.83732799  0.94874379    -0.02190
C917        C  0.47128487  0.52341082  0.00900104    -0.08830
C918        C  0.47027801  0.98374677  0.01189512     0.07370
C919        C  0.50019111  0.96131713  0.00017495    -0.02590
C920        C  0.53024626  0.97876077  0.98615325    -0.07040
C921        C  0.53112269  0.51838469  0.98322645     0.06480
C922        C  0.50131465  0.54081294  0.99494475    -0.02070
Br923      Br  0.50150585  0.59533356  0.99376343    -0.01760
H924        H  0.44897033  0.54119612  0.01807464     0.10400
H925        H  0.55265787  0.96105570  0.97708630     0.08410
Br926      Br  0.50050971  0.90677026  0.00132117    -0.02190
C927        C  0.41583499  0.80627981  0.13657342    -0.09220
C928        C  0.38274257  0.77987485  0.13591344     0.07370
C929        C  0.35078941  0.78469452  0.11922874    -0.02590
C930        C  0.35200271  0.81574062  0.10431216    -0.07040
C931        C  0.38469320  0.84224984  0.10518376     0.06480
C932        C  0.41701746  0.83729489  0.12144594    -0.02070
Br933      Br  0.46156567  0.87343345  0.12508901    -0.01760
H934        H  0.44045552  0.80337977  0.14929429     0.10400
H935        H  0.32716635  0.81905396  0.09173522     0.08410
Br936      Br  0.30484047  0.75000495  0.11496818    -0.02190
C937        C  0.33210715  0.58456830  0.12693291    -0.08830
C938        C  0.36928812  0.59293661  0.13879249     0.07370
C939        C  0.40495628  0.57009977  0.13502723    -0.02590
C940        C  0.40310273  0.54014079  0.11935337    -0.07040
C941        C  0.36625429  0.53198641  0.10702791     0.06480
C942        C  0.33027814  0.55461535  0.11104175    -0.02070
Br943      Br  0.27751544  0.54637234  0.09594579    -0.01760
H944        H  0.30443360  0.60185253  0.12975981     0.10400
H945        H  0.43105067  0.52311343  0.11680457     0.08410
Br946      Br  0.45663587  0.57668825  0.15160045    -0.02190
C947        C  0.01017224  0.98698251  0.51946334    -0.08830
C948        C  0.96873594  0.98317916  0.51165725     0.07370
C949        C  0.95845875  0.99626167  0.48935050    -0.02590
C950        C  0.98929804  0.51307114  0.47554218    -0.07040
C951        C  0.03073106  0.51674768  0.48333587     0.06480
C952        C  0.04101277  0.50370685  0.50563035    -0.02070
Br953      Br  0.09579298  0.51012392  0.51881604    -0.01760
H954        H  0.01847222  0.97765949  0.53664411     0.10400
H955        H  0.98105988  0.52241803  0.45835672     0.08410
Br956      Br  0.90380287  0.98974948  0.47602930    -0.02190
C957        C  0.70783855  0.75447363  0.74107071    -0.08830
C958        C  0.72072153  0.76785737  0.76274355     0.07370
C959        C  0.76339643  0.76489401  0.76886133    -0.02590
C960        C  0.79205215  0.74904475  0.75332755    -0.07040
C961        C  0.77912497  0.73552506  0.73169449     0.06480
C962        C  0.73648849  0.73864275  0.72553765    -0.02070
Br963      Br  0.71566578  0.72429184  0.69575023    -0.01760
H964        H  0.67523692  0.75685143  0.73599797     0.10400
H965        H  0.82464220  0.74659025  0.75841139     0.08410
Br966      Br  0.78423430  0.77928371  0.79863271    -0.02190
C967        C  0.99005893  0.61632781  0.76941037    -0.08830
C968        C  0.02998580  0.60782603  0.76065304     0.07370
C969        C  0.03918438  0.61646993  0.73746778    -0.02590
C970        C  0.00876453  0.63376071  0.72360724    -0.07040
C971        C  0.96882699  0.64235308  0.73237481     0.06480
C972        C  0.95966987  0.63369523  0.75558653    -0.02070
Br973      Br  0.90746470  0.64745190  0.76988407    -0.01760
H974        H  0.98284608  0.61043523  0.78729175     0.10400
H975        H  0.01603324  0.63968067  0.70573772     0.08410
Br976      Br  0.09163754  0.60290205  0.72340021    -0.02190
C977        C  0.89888959  0.81718729  0.64436200    -0.08830
C978        C  0.88482420  0.78134736  0.63705926     0.07370
C979        C  0.87243528  0.77638269  0.61386734    -0.02590
C980        C  0.87409109  0.80704819  0.59860169    -0.07040
C981        C  0.88686859  0.84296187  0.60615988     0.06480
C982        C  0.89929112  0.84806172  0.62918412    -0.02070
Br983      Br  0.91705088  0.89668692  0.64049807    -0.01760
H984        H  0.90833218  0.82149153  0.66208584     0.10400
H985        H  0.86424630  0.80310376  0.58090423     0.08410
Br986      Br  0.85381926  0.72844885  0.60175428    -0.02190
C987        C  0.90270412  0.58604288  0.62506518    -0.08830
C988        C  0.86649414  0.59304177  0.63826159     0.07370
C989        C  0.83082392  0.56988807  0.63459470    -0.02590
C990        C  0.83232815  0.54067360  0.61817426    -0.07040
C991        C  0.86887750  0.53351271  0.60539732     0.06480
C992        C  0.90423200  0.55683993  0.60885178    -0.02070
Br993      Br  0.95506674  0.55193582  0.59124395    -0.01760
H994        H  0.93037427  0.60352676  0.62724562     0.10400
H995        H  0.80495840  0.52288789  0.61572521     0.08410
Br996      Br  0.77911102  0.57587442  0.65117832    -0.02190
C997        C  0.50730531  0.79004094  0.49695933    -0.08830
C998        C  0.53057442  0.76580746  0.48261879     0.07370
C999        C  0.52369126  0.72621572  0.48391288    -0.02590
C1000       C  0.49432990  0.71171201  0.49950959    -0.07040
C1001       C  0.47095873  0.73595177  0.51376465     0.06480
C1002       C  0.47791274  0.77550268  0.51254848    -0.02070
Br1003     Br  0.45053145  0.81083376  0.53282266    -0.01760
H1004       H  0.51268100  0.82042997  0.49641817     0.10400
H1005       H  0.48889999  0.68132804  0.50004657     0.08410
Br1006     Br  0.55091465  0.69061328  0.46373167    -0.02190
C1007       C  0.79216693  0.87071882  0.49394655    -0.08830
C1008       C  0.77856224  0.89096065  0.51345776     0.07370
C1009       C  0.73510563  0.89416657  0.51764012    -0.02590
C1010       C  0.70658558  0.87750990  0.50238970    -0.07040
C1011       C  0.72017988  0.85726517  0.48287127     0.06480
C1012       C  0.76366233  0.85413855  0.47866320    -0.02070
Br1013     Br  0.78665951  0.82977281  0.45185505    -0.01760
H1014       H  0.82539622  0.86821042  0.49029531     0.10400
H1015       H  0.67336214  0.88009341  0.50602624     0.08410
Br1016     Br  0.71225007  0.91891383  0.54434051    -0.02190
C1017       C  0.48396535  0.60437502  0.22839425    -0.08830
C1018       C  0.47050431  0.64186125  0.23222101     0.07370
C1019       C  0.48719586  0.66246377  0.25087550    -0.02590
C1020       C  0.51721817  0.64559259  0.26514232    -0.07040
C1021       C  0.53063664  0.60809870  0.26134413     0.06480
C1022       C  0.51401519  0.58750674  0.24266764    -0.02070
Br1023     Br  0.53358743  0.53754917  0.23485391    -0.01760
H1024       H  0.47162806  0.58838603  0.21396074     0.10400
H1025       H  0.52955286  0.66159386  0.27957137     0.08410
Br1026     Br  0.46778155  0.71247466  0.25870364    -0.02190
C1027       C  0.73046449  0.97976199  0.26400406    -0.08830
C1028       C  0.71823314  0.51775567  0.26088056     0.07370
C1029       C  0.73621006  0.53894311  0.24281770    -0.02590
C1030       C  0.76655411  0.52223191  0.22861413    -0.07040
C1031       C  0.77897076  0.98430290  0.23183281     0.06480
C1032       C  0.76070907  0.96301603  0.24977528    -0.02070
Br1033     Br  0.77814888  0.91209668  0.25679606    -0.01760
H1034       H  0.71707460  0.96323295  0.27792755     0.10400
H1035       H  0.78000506  0.53876280  0.21471126     0.08410
Br1036     Br  0.71825471  0.58965347  0.23568697    -0.02190
C1037       C  0.66445055  0.69432973  0.38695524    -0.08830
C1038       C  0.63015145  0.71955879  0.38692315     0.07370
C1039       C  0.59726803  0.71326298  0.37095758    -0.02590
C1040       C  0.59902322  0.68216596  0.35606967    -0.07040
C1041       C  0.63306932  0.65700726  0.35623862     0.06480
C1042       C  0.66617162  0.66332441  0.37181476    -0.02070
Br1043     Br  0.71286271  0.62917826  0.37438682    -0.01760
H1044       H  0.68988650  0.69831322  0.39906636     0.10400
H1045       H  0.57350140  0.67776064  0.34404048     0.08410
Br1046     Br  0.54882655  0.74546067  0.36781846    -0.02190
C1047       C  0.58210631  0.92855350  0.38508614    -0.08830
C1048       C  0.61916163  0.90722853  0.38775020     0.07370
C1049       C  0.65478060  0.91746342  0.37451077    -0.02590
C1050       C  0.65265863  0.94826317  0.35945594    -0.07040
C1051       C  0.61578780  0.96949612  0.35683891     0.06480
C1052       C  0.58011658  0.95937523  0.36981484    -0.02070
Br1053     Br  0.52877398  0.98776406  0.36859160    -0.01760
H1054       H  0.55449371  0.92148903  0.39508219     0.10400
H1055       H  0.68029720  0.95553817  0.34950810     0.08410
Br1056     Br  0.70795520  0.89162978  0.37564785    -0.02190
loop_ 
_geom_bond_atom_site_label_1 
_geom_bond_atom_site_label_2 
_geom_bond_distance 
_geom_bond_site_symmetry_2 
_ccdc_geom_bond_type 
O1            C4   1.269       .  A
O1           Cd6   2.486       .  S
C2           O11   1.263       .  A
C2            O7   1.268       .  A
C2          C493   1.474       .  S
O3            C9   1.269       .  A
O3           Cd6   2.483       .  S
C4           O12   1.265       .  A
C4         C1051   1.479   1_545  S
C5           O10   1.268       .  A
C5            O8   1.263       .  A
C5          C500   1.476       .  S
Cd6          O13   2.421       .  S
Cd6          O12   2.417       .  S
Cd6          O11   2.439       .  S
Cd6           O7   2.478       .  S
Cd6          O10   2.481       .  S
Cd6           O8   2.443       .  S
C9           O13   1.265       .  A
C9          C513   1.476       .  S
O14          C17   1.269       .  A
O14         Cd19   2.477       .  S
C15          O24   1.262       .  A
C15          O20   1.270       .  A
C15         C520   1.487       .  S
O16          C22   1.267       .  A
O16         Cd19   2.474       .  S
C17          O25   1.264       .  A
C17         C470   1.478       .  S
C18          O23   1.270       .  A
C18          O21   1.263       .  A
C18         C510   1.487       .  S
Cd19         O26   2.441       .  S
Cd19         O25   2.438       .  S
Cd19         O24   2.416       .  S
Cd19         O20   2.493       .  S
Cd19         O23   2.483       .  S
Cd19         O21   2.420       .  S
C22          O26   1.265       .  A
C22         C483   1.483       .  S
O27          C30   1.268       .  A
O27         Cd32   2.470       .  S
C28          O37   1.265       .  A
C28          O33   1.268       .  A
C28         C460   1.487       .  S
O29          C35   1.268       .  A
O29         Cd32   2.481       .  S
C30          O38   1.265       .  A
C30         C433   1.479       .  S
C31          O36   1.268       .  A
C31          O34   1.265       .  A
C31         C443   1.478       .  S
Cd32         O39   2.428       .  S
Cd32         O38   2.443       .  S
Cd32         O37   2.421       .  S
Cd32         O33   2.486       .  S
Cd32         O36   2.476       .  S
Cd32         O34   2.443       .  S
C35          O39   1.263       .  A
C35         C450   1.476       .  S
O40          C43   1.269       .  A
O40         Cd45   2.481       .  S
C41          O50   1.264       .  A
C41          O46   1.268       .  A
C41         C480   1.482       .  S
O42          C48   1.268       .  A
O42         Cd45   2.473       .  S
C43          O51   1.264       .  A
C43         C991   1.478       .  S
C44          O49   1.266       .  A
C44          O47   1.263       .  A
C44         C453   1.465       .  S
Cd45         O52   2.446       .  S
Cd45         O51   2.422       .  S
Cd45         O50   2.438       .  S
Cd45         O46   2.479       .  S
Cd45         O49   2.471       .  S
Cd45         O47   2.440       .  S
C48          O52   1.265       .  A
C48         C420   1.481       .  S
O53          C56   1.267       .  A
O53         Cd58   2.483       .  S
C54          O63   1.265       .  A
C54          O59   1.267       .  A
C54         C390   1.483       .  S
O55          C61   1.267       .  A
O55         Cd58   2.470       .  S
C56          O64   1.264       .  A
C56         C403   1.476       .  S
C57          O62   1.267       .  A
C57          O60   1.264       .  A
C57         C941   1.485       .  S
Cd58         O65   2.447       .  S
Cd58         O64   2.429       .  S
Cd58         O63   2.448       .  S
Cd58         O59   2.472       .  S
Cd58         O62   2.483       .  S
Cd58         O60   2.423       .  S
C61          O65   1.266       .  A
C61         C383   1.483       .  S
O66          C69   1.267       .  A
O66         Cd71   2.474       .  S
C67          O76   1.265       .  A
C67          O72   1.269       .  A
C67         C410   1.475       .  S
O68          C74   1.269       .  A
O68         Cd71   2.490       .  S
C69          O77   1.265       .  A
C69         C370   1.483       .  S
C70          O75   1.268       .  A
C70          O73   1.264       .  A
C70         C490   1.474       .  S
Cd71         O78   2.417       .  S
Cd71         O77   2.440       .  S
Cd71         O76   2.420       .  S
Cd71         O72   2.471       .  S
Cd71         O75   2.474       .  S
Cd71         O73   2.443       .  S
C74          O78   1.262       .  A
C74         C400   1.484       .  S
O79          C82   1.267       .  A
O79         Cd84   2.476       .  S
C80          O89   1.263       .  A
C80          O85   1.267       .  A
C80         C888   1.470       .  S
O81          C87   1.270       .  A
O81         Cd84   2.484       .  S
C82          O90   1.265       .  A
C82         C340   1.484       .  S
C83          O88   1.268       .  A
C83          O86   1.264       .  A
C83         C330   1.485       .  S
Cd84         O91   2.418       .  S
Cd84         O90   2.450       .  S
Cd84         O89   2.441       .  S
Cd84         O85   2.472       .  S
Cd84         O88   2.488       .  S
Cd84         O86   2.439       .  S
C87          O91   1.263       .  A
C87         C350   1.484       .  S
O92          C95   1.266       .  A
O92         Cd97   2.476       .  S
C93         O102   1.264       .  A
C93          O98   1.268       .  A
C93         C473   1.477       .  S
O94         C100   1.268       .  A
O94         Cd97   2.490       .  S
C95         O103   1.263       .  A
C95         C363   1.472       .  S
C96         O101   1.269       .  A
C96          O99   1.267       .  A
C96         C353   1.482       .  S
Cd97        O104   2.439       .  S
Cd97        O103   2.442       .  S
Cd97        O102   2.447       .  S
Cd97         O98   2.473       .  S
Cd97        O101   2.475       .  S
Cd97         O99   2.422       .  S
C100        O104   1.262       .  A
C100        C320   1.481       .  S
O105        C108   1.271       .  A
O105       Cd110   2.485       .  S
C106        O115   1.261       .  A
C106        O111   1.267       .  A
C106        C293   1.472       .  S
O107        C113   1.268       .  A
O107       Cd110   2.465       .  S
C108        O116   1.264       .  A
C108        C838   1.486   1_545  S
C109        O114   1.267       .  A
C109        O112   1.264       .  A
C109        C393   1.480       .  S
Cd110       O117   2.441       .  S
Cd110       O116   2.422       .  S
Cd110       O115   2.447       .  S
Cd110       O111   2.486       .  S
Cd110       O114   2.480       .  S
Cd110       O112   2.446       .  S
C113        O117   1.265       .  A
C113        C300   1.469       .  S
O118        C121   1.268       .  A
O118       Cd123   2.479       .  S
C119        O128   1.264       .  A
C119        O124   1.267       .  A
C119        C430   1.479       .  S
O120        C126   1.266       .  A
O120       Cd123   2.483       .  S
C121        O129   1.265       .  A
C121        C313   1.478       .  S
C122        O127   1.267       .  A
C122        O125   1.267       .  A
C122        C343   1.485       .  S
Cd123       O130   2.443       .  S
Cd123       O129   2.435       .  S
Cd123       O128   2.444       .  S
Cd123       O124   2.480       .  S
Cd123       O127   2.470       .  S
Cd123       O125   2.451       .  S
C126        O130   1.263       .  A
C126        C303   1.476       .  S
O131        C134   1.268       .  A
O131       Cd136   2.498       .  S
C132        O141   1.267       .  A
C132        O137   1.268       .  A
C132        C333   1.484       .  S
O133        C139   1.268   1_545  A
O133       Cd136   2.482       .  S
C134        O142   1.260       .  A
C134        C280   1.485       .  S
C135        O140   1.267       .  A
C135        O138   1.265       .  A
C135        C440   1.476       .  S
Cd136       O143   2.430       .  S
Cd136       O142   2.419       .  S
Cd136       O141   2.446       .  S
Cd136       O137   2.466       .  S
Cd136       O140   2.472       .  S
Cd136       O138   2.447       .  S
C139        O143   1.263   1_565  A
C139        C798   1.474       .  S
O144        C147   1.266       .  A
O144       Cd149   2.492       .  S
C145        O154   1.267       .  A
C145        O150   1.268       .  A
C145        C260   1.482       .  S
O146        C152   1.267       .  A
O146       Cd149   2.485       .  S
C147        O155   1.263       .  A
C147        C273   1.487       .  S
C148        O153   1.267       .  A
C148        O151   1.266       .  A
C148        C380   1.481       .  S
Cd149       O156   2.431       .  S
Cd149       O155   2.426       .  S
Cd149       O154   2.453       .  S
Cd149       O150   2.470       .  S
Cd149       O153   2.470       .  S
Cd149       O151   2.450       .  S
C152        O156   1.264       .  A
C152        C283   1.475       .  S
O157        C160   1.269       .  A
O157       Cd162   2.498       .  S
C158        O167   1.265       .  A
C158        O163   1.268       .  A
C158        C503   1.476       .  S
O159        C165   1.267       .  A
O159       Cd162   2.484       .  S
C160        O168   1.261       .  A
C160        C240   1.487       .  S
C161        O166   1.268       .  A
C161        O164   1.266       .  A
C161        C778   1.487       .  S
Cd162       O169   2.445       .  S
Cd162       O168   2.417       .  S
Cd162       O167   2.447       .  S
Cd162       O163   2.472       .  S
Cd162       O166   2.475       .  S
Cd162       O164   2.426       .  S
C165        O169   1.263       .  A
C165        C230   1.480       .  S
O170        C173   1.267       .  A
O170       Cd175   2.479       .  S
C171        O180   1.265       .  A
C171        O176   1.269       .  A
C171        C253   1.472       .  S
O172        C178   1.267       .  A
O172       Cd175   2.500       .  S
C173        O181   1.265       .  A
C173        C263   1.481       .  S
C174        O179   1.269       .  A
C174        O177   1.265       .  A
C174        C290   1.471       .  S
Cd175       O182   2.417       .  S
Cd175       O181   2.450       .  S
Cd175       O180   2.429       .  S
Cd175       O176   2.474       .  S
Cd175       O179   2.469       .  S
Cd175       O177   2.447       .  S
C178        O182   1.263       .  A
C178        C243   1.481       .  S
O183        C186   1.267   1_545  A
O183       Cd188   2.486       .  S
C184        O193   1.265       .  A
C184        O189   1.269       .  A
C184        C323   1.481       .  S
O185        C191   1.268       .  A
O185       Cd188   2.484       .  S
C186        O194   1.264   1_565  A
C186        C751   1.483       .  S
C187        O192   1.268       .  A
C187        O190   1.264       .  A
C187        C423   1.479       .  S
Cd188       O195   2.429       .  S
Cd188       O194   2.428       .  S
Cd188       O193   2.442       .  S
Cd188       O189   2.470       .  S
Cd188       O192   2.477       .  S
Cd188       O190   2.443       .  S
C191        O195   1.263       .  A
C191        C210   1.477       .  S
O196        C199   1.267       .  A
O196       Cd201   2.483       .  S
C197        O206   1.266       .  A
C197        O202   1.267       .  A
C197        C373   1.484       .  S
O198        C204   1.267       .  A
O198       Cd201   2.493       .  S
C199        O207   1.263       .  A
C199        C220   1.471       .  S
C200        O205   1.269       .  A
C200        O203   1.265       .  A
C200        C233   1.480       .  S
Cd201       O208   2.425       .  S
Cd201       O207   2.432       .  S
Cd201       O206   2.445       .  S
Cd201       O202   2.466       .  S
Cd201       O205   2.473       .  S
Cd201       O203   2.442       .  S
C204        O208   1.264       .  A
C204        C213   1.488       .  S
C209        C210   1.404       .  A
C209        C214   1.403       .  A
C209        H216   1.084       .  S
C210        C211   1.410       .  A
C211        C212   1.394       .  A
C211       Br218   1.923       .  S
C212        C213   1.407       .  A
C212        H217   1.084       .  S
C213        C214   1.416       .  A
C214       Br215   1.920       .  S
C219        C220   1.402       .  A
C219        C224   1.402       .  A
C219        H226   1.084       .  S
C220        C221   1.407       .  A
C221        C222   1.394       .  A
C221       Br228   1.921       .  S
C222        C223   1.406       .  A
C222        H227   1.084       .  S
C223        C714   1.483       .  S
C223        C224   1.415       .  A
C224       Br225   1.920       .  S
C229        C230   1.404   1_455  A
C229        C234   1.400       .  A
C229        H236   1.083       .  S
C230        C231   1.412       .  A
C231        C232   1.400       .  A
C231       Br238   1.921       .  S
C232        C233   1.404   1_655  A
C232        H237   1.083       .  S
C233        C234   1.412       .  A
C234       Br235   1.922       .  S
C239        C240   1.408       .  A
C239        C244   1.403       .  A
C239        H246   1.083       .  S
C240        C241   1.417       .  A
C241        C242   1.394       .  A
C241       Br248   1.925       .  S
C242        C243   1.402       .  A
C242        H247   1.084       .  S
C243        C244   1.411       .  A
C244       Br245   1.920       .  S
C249        C250   1.408       .  A
C249        C254   1.395       .  A
C249        H256   1.084       .  S
C250        C689   1.487       .  S
C250        C251   1.417       .  A
C251        C252   1.402       .  A
C251       Br258   1.921       .  S
C252        C253   1.401       .  A
C252        H257   1.084       .  S
C253        C254   1.407       .  A
C254       Br255   1.922       .  S
C259        C260   1.405   1_554  A
C259        C264   1.400       .  A
C259        H266   1.084       .  S
C260        C261   1.412   1_455  A
C261        C262   1.399       .  A
C261       Br268   1.920       .  S
C262        C263   1.404   1_556  A
C262        H267   1.084       .  S
C263        C264   1.412   1_655  A
C264       Br265   1.920       .  S
C269        C270   1.403       .  A
C269        C274   1.402       .  A
C269        H276   1.084       .  S
C270        C667   1.474       .  S
C270        C271   1.407       .  A
C271        C272   1.394       .  A
C271       Br278   1.923       .  S
C272        C273   1.408       .  A
C272        H277   1.084       .  S
C273        C274   1.417       .  A
C274       Br275   1.920       .  S
C279        C280   1.408       .  A
C279        C284   1.402       .  A
C279        H286   1.083       .  S
C280        C281   1.418       .  A
C281        C282   1.395       .  A
C281       Br288   1.925       .  S
C282        C283   1.400       .  A
C282        H287   1.084       .  S
C283        C284   1.409       .  A
C284       Br285   1.920       .  S
C289        C290   1.403       .  A
C289        C294   1.400       .  A
C289        H296   1.083       .  S
C290        C291   1.407   1_554  A
C291        C292   1.400       .  A
C291       Br298   1.919       .  S
C292        C293   1.404       .  A
C292        H297   1.083       .  S
C293        C294   1.408   1_556  A
C294       Br295   1.920       .  S
C299        C300   1.402       .  A
C299        C304   1.400       .  A
C299        H306   1.084       .  S
C300        C301   1.406       .  A
C301        C302   1.397       .  A
C301       Br308   1.919       .  S
C302        C303   1.405       .  A
C302        H307   1.084       .  S
C303        C304   1.412       .  A
C304       Br305   1.919       .  S
C309        C310   1.407       .  A
C309        C314   1.402       .  A
C309        H316   1.083       .  S
C310        C636   1.486       .  S
C310        C311   1.417       .  A
C311        C312   1.397       .  A
C311       Br846   1.924       .  S
C312        C313   1.401       .  A
C312        H317   1.084       .  S
C313        C314   1.410       .  A
C314       Br315   1.920       .  S
Br318       C839   1.924       .  S
C319        C320   1.404       .  A
C319        C324   1.400       .  A
C319        H326   1.083       .  S
C320        C321   1.414       .  A
C321        C322   1.399       .  A
C321       Br328   1.923       .  S
C322        C323   1.404       .  A
C322        H327   1.083       .  S
C323        C324   1.413       .  A
C324       Br325   1.922       .  S
C329        C334   1.398       .  A
C329        C858   1.406   1_545  A
C329        H336   1.084       .  S
C330        C331   1.413       .  A
C330        C857   1.406       .  A
C331        C332   1.400       .  A
C331       Br338   1.920       .  S
C332        C861   1.406       .  A
C332        H337   1.084       .  S
C333        C334   1.412       .  A
C333        C860   1.406   1_545  A
C334       Br335   1.921       .  S
C339        C340   1.405       .  A
C339        C344   1.399       .  A
C339        H346   1.084       .  S
C340        C341   1.413       .  A
C341        C342   1.400       .  A
C341       Br348   1.921       .  S
C342        C343   1.406       .  A
C342        H347   1.084       .  S
C343        C344   1.413       .  A
C344       Br345   1.921       .  S
C349        C350   1.406       .  A
C349        C354   1.402       .  A
C349        H356   1.084       .  S
C350        C351   1.416       .  A
C351        C352   1.395       .  A
C351       Br358   1.925       .  S
C352        C353   1.403       .  A
C352        H357   1.084       .  S
C353        C354   1.412       .  A
C354       Br355   1.920       .  S
C359        C360   1.403       .  A
C359        C364   1.398       .  A
C359        H894   1.084   1_545  S
C360        C608   1.470       .  S
C360        C361   1.408       .  A
C361        C362   1.398       .  A
C361       Br368   1.919       .  S
C362        C363   1.403       .  A
C362        H367   1.084       .  S
C363        C364   1.409       .  A
C364       Br365   1.919       .  S
H366        C887   1.084       .  S
C369        C370   1.406       .  A
C369        C374   1.398       .  A
C369        H376   1.084       .  S
C370        C371   1.412       .  A
C371        C372   1.399       .  A
C371       Br378   1.921       .  S
C372        C373   1.407       .  A
C372        H377   1.084       .  S
C373        C374   1.413       .  A
C374       Br375   1.922       .  S
C379        C380   1.404   1_554  A
C379        C384   1.399       .  A
C379        H386   1.084       .  S
C380        C381   1.412       .  A
C381        C382   1.399       .  A
C381       Br388   1.920       .  S
C382        C383   1.406   1_556  A
C382        H387   1.084       .  S
C383        C384   1.413       .  A
C384       Br385   1.921       .  S
C389        C394   1.399   1_554  A
C389        C918   1.407   1_545  A
C389        H396   1.084       .  S
C390        C391   1.412       .  A
C390        C917   1.407       .  A
C391        C392   1.399   1_554  A
C391       Br398   1.921       .  S
C392        C921   1.405       .  A
C392        H397   1.084       .  S
C393        C394   1.410       .  A
C393        C920   1.405   1_545  A
C394       Br395   1.920       .  S
C399        C400   1.407       .  A
C399        C404   1.402       .  A
C399        H406   1.083       .  S
C400        C401   1.417       .  A
C401        C402   1.395       .  A
C401       Br408   1.924       .  S
C402        C403   1.401       .  A
C402        H407   1.084       .  S
C403        C404   1.409       .  A
C404       Br405   1.920       .  S
C409        C410   1.403       .  A
C409        C414   1.402       .  A
C409        H416   1.084       .  S
C410        C411   1.410       .  A
C411        C412   1.394       .  A
C411       Br418   1.924       .  S
C412        C413   1.406       .  A
C412        H417   1.084       .  S
C413        C585   1.485   1_545  S
C413        C414   1.416       .  A
C414       Br415   1.920       .  S
C419        C420   1.404   1_455  A
C419        C952   1.399       .  A
C419        H426   1.083       .  S
C420        C421   1.413       .  A
C421        C950   1.400       .  A
C421       Br428   1.922       .  S
C422        C423   1.403   1_655  A
C422        C949   1.400   1_545  A
C422        H427   1.083       .  S
C423        C424   1.412       .  A
C424        C947   1.399   1_545  A
C424       Br425   1.922       .  S
C429        C430   1.405       .  A
C429        C434   1.398       .  A
C429        H436   1.084       .  S
C430        C431   1.411       .  A
C431        C432   1.399       .  A
C431       Br438   1.920       .  S
C432        C433   1.405       .  A
C432        H437   1.084       .  S
C433        C434   1.411       .  A
C434       Br435   1.920       .  S
C439        C440   1.403   1_655  A
C439        C444   1.399       .  A
C439        H446   1.083       .  S
C440        C441   1.410       .  A
C441        C442   1.400       .  A
C441       Br448   1.921       .  S
C442        C443   1.404   1_455  A
C442        H447   1.083       .  S
C443        C444   1.412       .  A
C444       Br445   1.922       .  S
C449        C450   1.405       .  A
C449        C454   1.399       .  A
C449        H456   1.083       .  S
C450        C451   1.414       .  A
C451        C452   1.398       .  A
C451       Br458   1.922       .  S
C452        C453   1.399       .  A
C452        H457   1.083       .  S
C453        C454   1.406       .  A
C454       Br455   1.919       .  S
C459        C460   1.407       .  A
C459        C464   1.394       .  A
C459        H466   1.084       .  S
C460        C461   1.416       .  A
C461        C462   1.402       .  A
C461       Br468   1.920       .  S
C462        C463   1.404       .  A
C462        H467   1.084       .  S
C463        C571   1.478       .  S
C463        C464   1.410       .  A
C464       Br465   1.924       .  S
C469        C470   1.403       .  A
C469        C474   1.400       .  A
C469        H476   1.084       .  S
C470        C471   1.413       .  A
C471        C472   1.399       .  A
C471       Br478   1.921       .  S
C472        C473   1.402       .  A
C472        H477   1.084       .  S
C473        C474   1.412       .  A
C474       Br475   1.921       .  S
C479        C480   1.406       .  A
C479        C484   1.399       .  A
C479        H486   1.084       .  S
C480        C481   1.412       .  A
C481        C482   1.399       .  A
C481       Br488   1.920       .  S
C482        C483   1.406       .  A
C482        H487   1.084       .  S
C483        C484   1.412       .  A
C484       Br485   1.921       .  S
C489        C490   1.405       .  A
C489        C494   1.400       .  A
C489        H496   1.083       .  S
C490        C491   1.408       .  A
C491        C492   1.399       .  A
C491       Br498   1.920       .  S
C492        C493   1.404       .  A
C492        H497   1.083       .  S
C493        C494   1.408       .  A
C494       Br495   1.920       .  S
C499        C504   1.399       .  A
C499       C1028   1.405       .  A
C499        H506   1.083       .  S
C500        C501   1.409       .  A
C500       C1027   1.405   1_545  A
C501        C502   1.400       .  A
C501       Br508   1.920       .  S
C502       C1031   1.405   1_545  A
C502        H507   1.083       .  S
C503        C504   1.409       .  A
C503       C1030   1.405       .  A
C504       Br505   1.920       .  S
C509        C510   1.409       .  A
C509        C514   1.402       .  A
C509        H516   1.083       .  S
C510        C511   1.418       .  A
C511        C512   1.395       .  A
C511       Br518   1.925       .  S
C512        C513   1.401       .  A
C512        H517   1.084       .  S
C513        C514   1.408       .  A
C514       Br515   1.919       .  S
C519        C520   1.409       .  A
C519        C524   1.403       .  A
C519        H526   1.083       .  S
C520        C521   1.418       .  A
C521        C522   1.394       .  A
C521       Br528   1.925       .  S
C522        C523   1.402       .  A
C522        H527   1.084       .  S
C523        C532   1.479       .  S
C523        C524   1.410       .  A
C524       Br525   1.919       .  S
O529        C532   1.269       .  A
O529       Cd534   2.486       .  S
C530        O539   1.263       .  A
C530        O535   1.268       .  A
C530       C1021   1.474       .  S
O531        C537   1.269       .  A
O531       Cd534   2.483       .  S
C532        O540   1.265       .  A
C533        O538   1.268       .  A
C533        O536   1.263       .  A
C533       C1028   1.476       .  S
Cd534       O541   2.421       .  S
Cd534       O540   2.417       .  S
Cd534       O539   2.439       .  S
Cd534       O535   2.478       .  S
Cd534       O538   2.481       .  S
Cd534       O536   2.443       .  S
C537        O541   1.265       .  A
C537       C1041   1.476       .  S
O542        C545   1.269       .  A
O542       Cd547   2.477       .  S
C543        O552   1.262       .  A
C543        O548   1.270       .  A
C543       C1048   1.487       .  S
O544        C550   1.267       .  A
O544       Cd547   2.474       .  S
C545        O553   1.264       .  A
C545        C998   1.478       .  S
C546        O551   1.270       .  A
C546        O549   1.263       .  A
C546       C1038   1.487       .  S
Cd547       O554   2.441       .  S
Cd547       O553   2.438       .  S
Cd547       O552   2.416       .  S
Cd547       O548   2.493       .  S
Cd547       O551   2.483       .  S
Cd547       O549   2.420       .  S
C550        O554   1.265       .  A
C550       C1011   1.483       .  S
O555        C558   1.268       .  A
O555       Cd560   2.470       .  S
C556        O565   1.265       .  A
C556        O561   1.268       .  A
C556        C988   1.487       .  S
O557        C563   1.268       .  A
O557       Cd560   2.481       .  S
C558        O566   1.265       .  A
C558        C961   1.479       .  S
C559        O564   1.268       .  A
C559        O562   1.265       .  A
C559        C971   1.478       .  S
Cd560       O567   2.428       .  S
Cd560       O566   2.443       .  S
Cd560       O565   2.421       .  S
Cd560       O561   2.486       .  S
Cd560       O564   2.476       .  S
Cd560       O562   2.443       .  S
C563        O567   1.263       .  A
C563        C978   1.476       .  S
O568        C571   1.269   1_565  A
O568       Cd573   2.481       .  S
C569        O578   1.264       .  A
C569        O574   1.268       .  A
C569       C1008   1.482       .  S
O570        C576   1.268       .  A
O570       Cd573   2.473       .  S
C571        O579   1.264   1_545  A
C572        O577   1.266       .  A
C572        O575   1.263       .  A
C572        C981   1.465       .  S
Cd573       O580   2.446       .  S
Cd573       O579   2.422       .  S
Cd573       O578   2.438       .  S
Cd573       O574   2.479       .  S
Cd573       O577   2.471       .  S
Cd573       O575   2.440       .  S
C576        O580   1.265       .  A
C576        C948   1.481       .  S
O581        C584   1.267       .  A
O581       Cd586   2.483       .  S
C582        O591   1.265       .  A
C582        O587   1.267       .  A
C582        C918   1.483       .  S
O583        C589   1.267       .  A
O583       Cd586   2.470       .  S
C584        O592   1.264       .  A
C584        C931   1.476       .  S
C585        O590   1.267       .  A
C585        O588   1.264       .  A
Cd586       O593   2.447       .  S
Cd586       O592   2.429       .  S
Cd586       O591   2.448       .  S
Cd586       O587   2.472       .  S
Cd586       O590   2.483       .  S
Cd586       O588   2.423       .  S
C589        O593   1.266       .  A
C589        C911   1.483       .  S
O594        C597   1.267       .  A
O594       Cd599   2.474       .  S
C595        O604   1.265       .  A
C595        O600   1.269       .  A
C595        C938   1.475       .  S
O596        C602   1.269       .  A
O596       Cd599   2.490       .  S
C597        O605   1.265       .  A
C597        C898   1.483       .  S
C598        O603   1.268       .  A
C598        O601   1.264       .  A
C598       C1018   1.474       .  S
Cd599       O606   2.417       .  S
Cd599       O605   2.440       .  S
Cd599       O604   2.420       .  S
Cd599       O600   2.471       .  S
Cd599       O603   2.474       .  S
Cd599       O601   2.443       .  S
C602        O606   1.262       .  A
C602        C928   1.484       .  S
O607        C610   1.267       .  A
O607       Cd612   2.476       .  S
C608        O617   1.263   1_545  A
C608        O613   1.267   1_545  A
O609        C615   1.270       .  A
O609       Cd612   2.484       .  S
C610        O618   1.265       .  A
C610        C868   1.484       .  S
C611        O616   1.268       .  A
C611        O614   1.264       .  A
C611        C858   1.485       .  S
Cd612       O619   2.418       .  S
Cd612       O618   2.450       .  S
Cd612       O617   2.441       .  S
Cd612       O613   2.472       .  S
Cd612       O616   2.488       .  S
Cd612       O614   2.439       .  S
C615        O619   1.263       .  A
C615        C878   1.484       .  S
O620        C623   1.266       .  A
O620       Cd625   2.476       .  S
C621        O630   1.264       .  A
C621        O626   1.268       .  A
C621       C1001   1.477       .  S
O622        C628   1.268       .  A
O622       Cd625   2.490       .  S
C623        O631   1.263       .  A
C623        C891   1.472       .  S
C624        O629   1.269       .  A
C624        O627   1.267       .  A
C624        C881   1.482       .  S
Cd625       O632   2.439       .  S
Cd625       O631   2.442       .  S
Cd625       O630   2.447       .  S
Cd625       O626   2.473       .  S
Cd625       O629   2.475       .  S
Cd625       O627   2.422       .  S
C628        O632   1.262       .  A
C628        C848   1.481       .  S
O633        C636   1.271       .  A
O633       Cd638   2.485       .  S
C634        O643   1.261       .  A
C634        O639   1.267       .  A
C634        C821   1.472       .  S
O635        C641   1.268       .  A
O635       Cd638   2.465       .  S
C636        O644   1.264       .  A
C637        O642   1.267       .  A
C637        O640   1.264       .  A
C637        C921   1.480       .  S
Cd638       O645   2.441       .  S
Cd638       O644   2.422       .  S
Cd638       O643   2.447       .  S
Cd638       O639   2.486       .  S
Cd638       O642   2.480       .  S
Cd638       O640   2.446       .  S
C641        O645   1.265       .  A
C641        C828   1.469       .  S
O646        C649   1.268       .  A
O646       Cd651   2.479       .  S
C647        O656   1.264       .  A
C647        O652   1.267       .  A
C647        C958   1.479       .  S
O648        C654   1.266       .  A
O648       Cd651   2.483       .  S
C649        O657   1.265       .  A
C649        C841   1.478       .  S
C650        O655   1.267       .  A
C650        O653   1.267       .  A
C650        C871   1.485       .  S
Cd651       O658   2.443       .  S
Cd651       O657   2.435       .  S
Cd651       O656   2.444       .  S
Cd651       O652   2.480       .  S
Cd651       O655   2.470       .  S
Cd651       O653   2.451       .  S
C654        O658   1.263       .  A
C654        C831   1.476       .  S
O659        C662   1.268       .  A
O659       Cd664   2.498       .  S
C660        O669   1.267       .  A
C660        O665   1.268       .  A
C660        C861   1.484       .  S
O661        C667   1.268       .  A
O661       Cd664   2.482       .  S
C662        O670   1.260       .  A
C662        C808   1.485       .  S
C663        O668   1.267       .  A
C663        O666   1.265       .  A
C663        C968   1.476       .  S
Cd664       O671   2.430       .  S
Cd664       O670   2.419       .  S
Cd664       O669   2.446       .  S
Cd664       O665   2.466       .  S
Cd664       O668   2.472       .  S
Cd664       O666   2.447       .  S
C667        O671   1.263       .  A
O672        C675   1.266       .  A
O672       Cd677   2.492       .  S
C673        O682   1.267       .  A
C673        O678   1.268       .  A
C673        C788   1.482       .  S
O674        C680   1.267       .  A
O674       Cd677   2.485       .  S
C675        O683   1.263       .  A
C675        C801   1.487       .  S
C676        O681   1.267       .  A
C676        O679   1.266       .  A
C676        C908   1.481       .  S
Cd677       O684   2.431       .  S
Cd677       O683   2.426       .  S
Cd677       O682   2.453       .  S
Cd677       O678   2.470       .  S
Cd677       O681   2.470       .  S
Cd677       O679   2.450       .  S
C680        O684   1.264       .  A
C680        C811   1.475       .  S
O685        C688   1.269       .  A
O685       Cd690   2.498       .  S
C686        O695   1.265       .  A
C686        O691   1.268       .  A
C686       C1031   1.476       .  S
O687        C693   1.267       .  A
O687       Cd690   2.484       .  S
C688        O696   1.261       .  A
C688        C768   1.487       .  S
C689        O694   1.268   1_545  A
C689        O692   1.266   1_545  A
Cd690       O697   2.445       .  S
Cd690       O696   2.417       .  S
Cd690       O695   2.447       .  S
Cd690       O691   2.472       .  S
Cd690       O694   2.475       .  S
Cd690       O692   2.426       .  S
C693        O697   1.263       .  A
C693        C758   1.480       .  S
O698        C701   1.267       .  A
O698       Cd703   2.479       .  S
C699        O708   1.265       .  A
C699        O704   1.269       .  A
C699        C781   1.472       .  S
O700        C706   1.267       .  A
O700       Cd703   2.500       .  S
C701        O709   1.265       .  A
C701        C791   1.481       .  S
C702        O707   1.269       .  A
C702        O705   1.265       .  A
C702        C818   1.471       .  S
Cd703       O710   2.417       .  S
Cd703       O709   2.450       .  S
Cd703       O708   2.429       .  S
Cd703       O704   2.474       .  S
Cd703       O707   2.469       .  S
Cd703       O705   2.447       .  S
C706        O710   1.263       .  A
C706        C771   1.481       .  S
O711        C714   1.267       .  A
O711       Cd716   2.486       .  S
C712        O721   1.265       .  A
C712        O717   1.269       .  A
C712        C851   1.481       .  S
O713        C719   1.268       .  A
O713       Cd716   2.484       .  S
C714        O722   1.264       .  A
C715        O720   1.268       .  A
C715        O718   1.264       .  A
C715        C951   1.479       .  S
Cd716       O723   2.429       .  S
Cd716       O722   2.428       .  S
Cd716       O721   2.442       .  S
Cd716       O717   2.470       .  S
Cd716       O720   2.477       .  S
Cd716       O718   2.443       .  S
C719        O723   1.263       .  A
C719        C738   1.477       .  S
O724        C727   1.267       .  A
O724       Cd729   2.483       .  S
C725        O734   1.266       .  A
C725        O730   1.267       .  A
C725        C901   1.484       .  S
O726        C732   1.267       .  A
O726       Cd729   2.493       .  S
C727        O735   1.263       .  A
C727        C748   1.471       .  S
C728        O733   1.269       .  A
C728        O731   1.265       .  A
C728        C761   1.480       .  S
Cd729       O736   2.425       .  S
Cd729       O735   2.432       .  S
Cd729       O734   2.445       .  S
Cd729       O730   2.466       .  S
Cd729       O733   2.473       .  S
Cd729       O731   2.442       .  S
C732        O736   1.264       .  A
C732        C741   1.488       .  S
C737        C738   1.404       .  A
C737        C742   1.403       .  A
C737        H744   1.084       .  S
C738        C739   1.410       .  A
C739        C740   1.394       .  A
C739       Br746   1.923       .  S
C740        C741   1.407       .  A
C740        H745   1.084       .  S
C741        C742   1.416       .  A
C742       Br743   1.920       .  S
C747        C748   1.402       .  A
C747        C752   1.402       .  A
C747        H754   1.084       .  S
C748        C749   1.407       .  A
C749        C750   1.394       .  A
C749       Br756   1.921       .  S
C750        C751   1.406       .  A
C750        H755   1.084       .  S
C751        C752   1.415       .  A
C752       Br753   1.920       .  S
C757        C758   1.404   1_455  A
C757        C762   1.400       .  A
C757        H764   1.083       .  S
C758        C759   1.412       .  A
C759        C760   1.400       .  A
C759       Br766   1.921       .  S
C760        C761   1.404   1_655  A
C760        H765   1.083       .  S
C761        C762   1.412       .  A
C762       Br763   1.922       .  S
C767        C768   1.408       .  A
C767        C772   1.403       .  A
C767        H774   1.083       .  S
C768        C769   1.417       .  A
C769        C770   1.394       .  A
C769       Br776   1.925       .  S
C770        C771   1.402       .  A
C770        H775   1.084       .  S
C771        C772   1.411       .  A
C772       Br773   1.920       .  S
C777        C778   1.408       .  A
C777        C782   1.395       .  A
C777        H784   1.084       .  S
C778        C779   1.417       .  A
C779        C780   1.402       .  A
C779       Br786   1.921       .  S
C780        C781   1.401       .  A
C780        H785   1.084       .  S
C781        C782   1.407       .  A
C782       Br783   1.922       .  S
C787        C788   1.405   1_554  A
C787        C792   1.400       .  A
C787        H794   1.084       .  S
C788        C789   1.412   1_455  A
C789        C790   1.399       .  A
C789       Br796   1.920       .  S
C790        C791   1.404   1_556  A
C790        H795   1.084       .  S
C791        C792   1.412   1_655  A
C792       Br793   1.920       .  S
C797        C798   1.403       .  A
C797        C802   1.402       .  A
C797        H804   1.084       .  S
C798        C799   1.407       .  A
C799        C800   1.394       .  A
C799       Br806   1.923       .  S
C800        C801   1.408       .  A
C800        H805   1.084       .  S
C801        C802   1.417       .  A
C802       Br803   1.920       .  S
C807        C808   1.408       .  A
C807        C812   1.402       .  A
C807        H814   1.083       .  S
C808        C809   1.418       .  A
C809        C810   1.395       .  A
C809       Br816   1.925       .  S
C810        C811   1.400       .  A
C810        H815   1.084       .  S
C811        C812   1.409       .  A
C812       Br813   1.920       .  S
C817        C818   1.403       .  A
C817        C822   1.400       .  A
C817        H824   1.083       .  S
C818        C819   1.407   1_554  A
C819        C820   1.400       .  A
C819       Br826   1.919       .  S
C820        C821   1.404       .  A
C820        H825   1.083       .  S
C821        C822   1.408   1_556  A
C822       Br823   1.920       .  S
C827        C828   1.402       .  A
C827        C832   1.400       .  A
C827        H834   1.084       .  S
C828        C829   1.406       .  A
C829        C830   1.397       .  A
C829       Br836   1.919       .  S
C830        C831   1.405       .  A
C830        H835   1.084       .  S
C831        C832   1.412       .  A
C832       Br833   1.919       .  S
C837        C838   1.407       .  A
C837        C842   1.402       .  A
C837        H844   1.083       .  S
C838        C839   1.417       .  A
C839        C840   1.397       .  A
C840        C841   1.401       .  A
C840        H845   1.084       .  S
C841        C842   1.410       .  A
C842       Br843   1.920       .  S
C847        C848   1.404       .  A
C847        C852   1.400       .  A
C847        H854   1.083       .  S
C848        C849   1.414       .  A
C849        C850   1.399       .  A
C849       Br856   1.923       .  S
C850        C851   1.404       .  A
C850        H855   1.083       .  S
C851        C852   1.413       .  A
C852       Br853   1.922       .  S
C857        C862   1.398       .  A
C857        H864   1.084       .  S
C858        C859   1.413       .  A
C859        C860   1.400       .  A
C859       Br866   1.920       .  S
C860        H865   1.084       .  S
C861        C862   1.412       .  A
C862       Br863   1.921       .  S
C867        C868   1.405       .  A
C867        C872   1.399       .  A
C867        H874   1.084       .  S
C868        C869   1.413       .  A
C869        C870   1.400       .  A
C869       Br876   1.921       .  S
C870        C871   1.406       .  A
C870        H875   1.084       .  S
C871        C872   1.413       .  A
C872       Br873   1.921       .  S
C877        C878   1.406       .  A
C877        C882   1.402       .  A
C877        H884   1.084       .  S
C878        C879   1.416       .  A
C879        C880   1.395       .  A
C879       Br886   1.925       .  S
C880        C881   1.403       .  A
C880        H885   1.084       .  S
C881        C882   1.412       .  A
C882       Br883   1.920       .  S
C887        C888   1.403       .  A
C887        C892   1.398       .  A
C888        C889   1.408       .  A
C889        C890   1.398       .  A
C889       Br896   1.919       .  S
C890        C891   1.403       .  A
C890        H895   1.084       .  S
C891        C892   1.409       .  A
C892       Br893   1.919       .  S
C897        C898   1.406       .  A
C897        C902   1.398       .  A
C897        H904   1.084       .  S
C898        C899   1.412       .  A
C899        C900   1.399       .  A
C899       Br906   1.921       .  S
C900        C901   1.407       .  A
C900        H905   1.084       .  S
C901        C902   1.413       .  A
C902       Br903   1.922       .  S
C907        C908   1.404   1_554  A
C907        C912   1.399       .  A
C907        H914   1.084       .  S
C908        C909   1.412       .  A
C909        C910   1.399       .  A
C909       Br916   1.920       .  S
C910        C911   1.406   1_556  A
C910        H915   1.084       .  S
C911        C912   1.413       .  A
C912       Br913   1.921       .  S
C917        C922   1.399   1_554  A
C917        H924   1.084       .  S
C918        C919   1.412       .  A
C919        C920   1.399   1_554  A
C919       Br926   1.921       .  S
C920        H925   1.084       .  S
C921        C922   1.410       .  A
C922       Br923   1.920       .  S
C927        C928   1.407       .  A
C927        C932   1.402       .  A
C927        H934   1.083       .  S
C928        C929   1.417       .  A
C929        C930   1.395       .  A
C929       Br936   1.924       .  S
C930        C931   1.401       .  A
C930        H935   1.084       .  S
C931        C932   1.409       .  A
C932       Br933   1.920       .  S
C937        C938   1.403       .  A
C937        C942   1.402       .  A
C937        H944   1.084       .  S
C938        C939   1.410       .  A
C939        C940   1.394       .  A
C939       Br946   1.924       .  S
C940        C941   1.406       .  A
C940        H945   1.084       .  S
C941        C942   1.416       .  A
C942       Br943   1.920       .  S
C947        C948   1.404   1_455  A
C947        H954   1.083       .  S
C948        C949   1.413       .  A
C949       Br956   1.922       .  S
C950        C951   1.403   1_655  A
C950        H955   1.083       .  S
C951        C952   1.412       .  A
C952       Br953   1.922       .  S
C957        C958   1.405       .  A
C957        C962   1.398       .  A
C957        H964   1.084       .  S
C958        C959   1.411       .  A
C959        C960   1.399       .  A
C959       Br966   1.920       .  S
C960        C961   1.405       .  A
C960        H965   1.084       .  S
C961        C962   1.411       .  A
C962       Br963   1.920       .  S
C967        C968   1.403   1_655  A
C967        C972   1.399       .  A
C967        H974   1.083       .  S
C968        C969   1.410       .  A
C969        C970   1.400       .  A
C969       Br976   1.921       .  S
C970        C971   1.404   1_455  A
C970        H975   1.083       .  S
C971        C972   1.412       .  A
C972       Br973   1.922       .  S
C977        C978   1.405       .  A
C977        C982   1.399       .  A
C977        H984   1.083       .  S
C978        C979   1.414       .  A
C979        C980   1.398       .  A
C979       Br986   1.922       .  S
C980        C981   1.399       .  A
C980        H985   1.083       .  S
C981        C982   1.406       .  A
C982       Br983   1.919       .  S
C987        C988   1.407       .  A
C987        C992   1.394       .  A
C987        H994   1.084       .  S
C988        C989   1.416       .  A
C989        C990   1.402       .  A
C989       Br996   1.920       .  S
C990        C991   1.404       .  A
C990        H995   1.084       .  S
C991        C992   1.410       .  A
C992       Br993   1.924       .  S
C997        C998   1.403       .  A
C997       C1002   1.400       .  A
C997       H1004   1.084       .  S
C998        C999   1.413       .  A
C999       C1000   1.399       .  A
C999      Br1006   1.921       .  S
C1000      C1001   1.402       .  A
C1000      H1005   1.084       .  S
C1001      C1002   1.412       .  A
C1002     Br1003   1.921       .  S
C1007      C1008   1.406       .  A
C1007      C1012   1.399       .  A
C1007      H1014   1.084       .  S
C1008      C1009   1.412       .  A
C1009      C1010   1.399       .  A
C1009     Br1016   1.920       .  S
C1010      C1011   1.406       .  A
C1010      H1015   1.084       .  S
C1011      C1012   1.412       .  A
C1012     Br1013   1.921       .  S
C1017      C1018   1.405       .  A
C1017      C1022   1.400       .  A
C1017      H1024   1.083       .  S
C1018      C1019   1.408       .  A
C1019      C1020   1.399       .  A
C1019     Br1026   1.920       .  S
C1020      C1021   1.404       .  A
C1020      H1025   1.083       .  S
C1021      C1022   1.408       .  A
C1022     Br1023   1.920       .  S
C1027      C1032   1.399       .  A
C1027      H1034   1.083       .  S
C1028      C1029   1.409       .  A
C1029      C1030   1.400       .  A
C1029     Br1036   1.920       .  S
C1030      H1035   1.083       .  S
C1031      C1032   1.409       .  A
C1032     Br1033   1.920       .  S
C1037      C1038   1.409       .  A
C1037      C1042   1.402       .  A
C1037      H1044   1.083       .  S
C1038      C1039   1.418       .  A
C1039      C1040   1.395       .  A
C1039     Br1046   1.925       .  S
C1040      C1041   1.401       .  A
C1040      H1045   1.084       .  S
C1041      C1042   1.408       .  A
C1042     Br1043   1.919       .  S
C1047      C1048   1.409       .  A
C1047      C1052   1.403       .  A
C1047      H1054   1.083       .  S
C1048      C1049   1.418       .  A
C1049      C1050   1.394       .  A
C1049     Br1056   1.925       .  S
C1050      C1051   1.402       .  A
C1050      H1055   1.084       .  S
C1051      C1052   1.410       .  A
C1052     Br1053   1.919       .  S
