geometry optimzed in LAMMPS
_audit_creation_date              2020-11-30 
_audit_creation_method            'lammps2cif' 
_symmetry_space_group_name_H-M    'P1' 
_symmetry_Int_Tables_number       1 
_symmetry_cell_setting            triclinic 
loop_ 
_symmetry_equiv_pos_as_xyz 
  x,y,z 
_cell_length_a                    58.596416357237466 
_cell_length_b                    51.81717909387282 
_cell_length_c                    49.23466740698186 
_cell_angle_alpha                 89.94088655191366 
_cell_angle_beta                  90.16210311962338 
_cell_angle_gamma                 89.79422294604022 
loop_ 
_atom_site_label 
_atom_site_type_symbol 
_atom_site_fract_x 
_atom_site_fract_y 
_atom_site_fract_z 
_atom_site_charge 
N1          N  0.35978628  0.93537181  0.54697062    -0.27390
N2          N  0.38047324  0.94519488  0.54458302    -0.35250
C3          C  0.38189217  0.95798238  0.52095945     0.00950
C4          C  0.36110473  0.95638524  0.50783487     0.06970
C5          C  0.34744305  0.94178229  0.52478727    -0.06130
H6          H  0.39745166  0.96618877  0.51294699     0.07640
H7          H  0.33052051  0.93460164  0.52032823     0.08840
Cu8        Cu  0.40737828  0.93714839  0.57053867     0.44170
Cu9        Cu  0.35136155  0.90992631  0.57796696     0.41990
Cu10       Cu  0.39967940  0.88922806  0.62150089     0.43880
N11         N  0.43369180  0.92401536  0.59503173    -0.34780
N12         N  0.43112167  0.90600678  0.61376003    -0.29030
C13         C  0.45165048  0.90055865  0.62480626    -0.05130
C14         C  0.46779755  0.91624567  0.61265576     0.07080
C15         C  0.45580063  0.93060233  0.59366242     0.00880
H16         H  0.45466354  0.88601241  0.64018989     0.08530
H17         H  0.46272745  0.94396920  0.57899017     0.07610
N18         N  0.36695211  0.87405550  0.62312447    -0.36230
N19         N  0.34962230  0.88140298  0.60759577    -0.28410
C20         C  0.33159836  0.86616918  0.61276682    -0.03650
C21         C  0.33796067  0.84822062  0.63223896     0.04960
C22         C  0.36035080  0.85404901  0.63856604     0.03050
H23         H  0.31519807  0.86799563  0.60282347     0.08160
H24         H  0.37136527  0.84377600  0.65259568     0.06990
N25         N  0.66870815  0.93071205  0.54704515    -0.27390
N26         N  0.65141215  0.94657661  0.55138449    -0.35250
C27         C  0.64870244  0.96199719  0.52973853     0.00950
C28         C  0.66439853  0.95493686  0.51009422     0.06970
C29         C  0.67717378  0.93536262  0.52210074    -0.06130
H30         H  0.63543462  0.97638516  0.52825083     0.07640
H31         H  0.69059611  0.92414109  0.51268723     0.08840
Cu32       Cu  0.62760684  0.94197661  0.58189879     0.44170
Cu33       Cu  0.67790706  0.90193096  0.57445548     0.41990
Cu34       Cu  0.63477961  0.88926345  0.62685324     0.43880
N35         N  0.60090160  0.92656682  0.60395064    -0.34780
N36         N  0.60336536  0.90660508  0.62037131    -0.29030
C37         C  0.58266887  0.89909351  0.62911842    -0.05130
C38         C  0.56633363  0.91501638  0.61731201     0.07080
C39         C  0.57860995  0.93232552  0.60171062     0.00880
H40         H  0.57988216  0.88310962  0.64278401     0.08530
H41         H  0.57172625  0.94723241  0.58861769     0.07610
N42         N  0.66673747  0.87215809  0.62557476    -0.36230
N43         N  0.68211637  0.87604088  0.60639814    -0.28410
C44         C  0.69977862  0.85980158  0.61046403    -0.03650
C45         C  0.69538936  0.84516007  0.63344541     0.04960
C46         C  0.67425653  0.85354204  0.64234537     0.03050
H47         H  0.71394984  0.85778803  0.59661519     0.08160
H48         H  0.66456593  0.84589330  0.65919769     0.06990
N49         N  0.67240979  0.00890158  0.35909065    -0.27390
N50         N  0.65383242  0.99482950  0.35609124    -0.35250
C51         C  0.65116125  0.97998698  0.37814698     0.00950
C52         C  0.66859244  0.98517697  0.39643969     0.06970
C53         C  0.68180283  0.00368711  0.38351010    -0.06130
H54         H  0.63634080  0.96805307  0.38165842     0.07640
H55         H  0.69574513  0.01457369  0.39210156     0.08840
Cu56       Cu  0.62896152  0.00167374  0.32700211     0.44170
Cu57       Cu  0.68169084  0.03729411  0.33151462     0.41990
Cu58       Cu  0.63780934  0.05326875  0.28065915     0.43880
N59         N  0.60288599  0.01778101  0.30402849    -0.34780
N60         N  0.60604962  0.03698638  0.28684586    -0.29030
C61         C  0.58568045  0.04488604  0.27715388    -0.05130
C62         C  0.56876721  0.03010453  0.28917442     0.07080
C63         C  0.58043804  0.01298435  0.30587889     0.00880
H64         H  0.58356149  0.06039236  0.26271411     0.08530
H65         H  0.57304035  0.99885756  0.31941210     0.07610
N66         N  0.66980066  0.07000770  0.28255664    -0.36230
N67         N  0.68551098  0.06476089  0.30114143    -0.28410
C68         C  0.70336936  0.08065053  0.29753862    -0.03650
C69         C  0.69853103  0.09671850  0.27578862     0.04960
C70         C  0.67727332  0.08922946  0.26663740     0.03050
H71         H  0.71863076  0.08050601  0.30994313     0.08160
H72         H  0.66754440  0.09782174  0.25021943     0.06990
N73         N  0.36259004  0.01623789  0.36114685    -0.27390
N74         N  0.38402663  0.00915378  0.36506697    -0.35250
C75         C  0.38548044  0.99465215  0.38751494     0.00950
C76         C  0.36389076  0.99189052  0.39829604     0.06970
C77         C  0.34974933  0.00626520  0.38130745    -0.06130
H78         H  0.40131356  0.98715111  0.39575939     0.07640
H79         H  0.33158865  0.00944773  0.38359500     0.08840
Cu80       Cu  0.41103731  0.01929931  0.34069686     0.44170
Cu81       Cu  0.35322523  0.04006668  0.32880280     0.41990
Cu82       Cu  0.40180372  0.05926015  0.28405979     0.43880
N83         N  0.43694070  0.02935497  0.31464060    -0.34780
N84         N  0.43382106  0.04438700  0.29329935    -0.29030
C85         C  0.45402455  0.04781495  0.28079999    -0.05130
C86         C  0.47045829  0.03379711  0.29484675     0.07080
C87         C  0.45902717  0.02264682  0.31634894     0.00880
H88         H  0.45658822  0.05967104  0.26297745     0.08530
H89         H  0.46629842  0.01116426  0.33257819     0.07610
N90         N  0.36857302  0.07302761  0.28105109    -0.36230
N91         N  0.35116598  0.06613962  0.29655348    -0.28410
C92         C  0.33290111  0.08071336  0.28991272    -0.03650
C93         C  0.33914797  0.09750540  0.26938240     0.04960
C94         C  0.36184562  0.09216912  0.26442496     0.03050
H95         H  0.31677206  0.08033027  0.30056382     0.08160
H96         H  0.37298814  0.10230644  0.25057213     0.06990
N97         N  0.36239394  0.43620515  0.35336277    -0.27390
N98         N  0.38020987  0.45132400  0.34949582    -0.35250
C99         C  0.38288600  0.46663663  0.37118693     0.00950
C100        C  0.36663747  0.46025787  0.39036904     0.06970
C101        C  0.35355976  0.44124422  0.37807909    -0.06130
H102        H  0.39667332  0.48024202  0.37330530     0.07640
H103        H  0.33983730  0.43043471  0.38729545     0.08840
Cu104      Cu  0.40514232  0.44507394  0.32055011     0.44170
Cu105      Cu  0.35357198  0.40703179  0.32624450     0.41990
Cu106      Cu  0.40196889  0.38595498  0.28467951     0.43880
N107        N  0.43332545  0.42784877  0.30277877    -0.34780
N108        N  0.43229046  0.40554215  0.28990155    -0.29030
C109        C  0.45358859  0.39756495  0.28400689    -0.05130
C110        C  0.46873540  0.41559008  0.29409405     0.07080
C111        C  0.45531161  0.43462376  0.30566986     0.00880
H112        H  0.45777239  0.37930597  0.27460077     0.08530
H113        H  0.46108893  0.45155578  0.31646817     0.07610
N114        N  0.36953418  0.37062816  0.28223478    -0.36230
N115        N  0.35175723  0.37847501  0.29655449    -0.28410
C116        C  0.33346444  0.36437567  0.28932210    -0.03650
C117        C  0.34005363  0.34695116  0.26941038     0.04960
C118        C  0.36313469  0.35125891  0.26588282     0.03050
H119        H  0.31667875  0.36640167  0.29820973     0.08160
H120        H  0.37467687  0.34067568  0.25283526     0.06990
N121        N  0.67524082  0.43198086  0.36167744    -0.27390
N122        N  0.65477123  0.44259425  0.36346394    -0.35250
C123        C  0.65352637  0.45637576  0.38643977     0.00950
C124        C  0.67409979  0.45429660  0.40012752     0.06970
C125        C  0.68760278  0.43879320  0.38364766    -0.06130
H126        H  0.63825842  0.46610135  0.39344039     0.07640
H127        H  0.70491733  0.43246173  0.38738738     0.08840
Cu128      Cu  0.62810338  0.43539470  0.33703624     0.44170
Cu129      Cu  0.68389083  0.40640068  0.33085504     0.41990
Cu130      Cu  0.63560856  0.38662148  0.28721972     0.43880
N131        N  0.60168543  0.42192865  0.31314066    -0.34780
N132        N  0.60420037  0.40357753  0.29481512    -0.29030
C133        C  0.58354888  0.39730470  0.28476443    -0.05130
C134        C  0.56726635  0.41265721  0.29734770     0.07080
C135        C  0.57946593  0.42789484  0.31528313     0.00880
H136        H  0.58061575  0.38165243  0.27071935     0.08530
H137        H  0.57257769  0.44163821  0.32964258     0.07610
N138        N  0.66821306  0.37108345  0.28553571    -0.36230
N139        N  0.68562588  0.37813531  0.30097588    -0.28410
C140        C  0.70364027  0.36286517  0.29541787    -0.03650
C141        C  0.69714568  0.34513934  0.27582394     0.04960
C142        C  0.67469399  0.35120603  0.26985551     0.03050
H143        H  0.72013211  0.36464681  0.30509509     0.08160
H144        H  0.66356759  0.34123566  0.25579812     0.06990
N145        N  0.36165138  0.51657011  0.54098316    -0.27390
N146        N  0.37943599  0.50110930  0.54400732    -0.35250
C147        C  0.38133061  0.48603956  0.52204161     0.00950
C148        C  0.36429418  0.49251373  0.50359632     0.06970
C149        C  0.35206201  0.51205042  0.51650349    -0.06130
H150        H  0.39534175  0.47274116  0.51888189     0.07640
H151        H  0.33857593  0.52381097  0.50802526     0.08840
Cu152      Cu  0.40454224  0.50570333  0.57318507     0.44170
Cu153      Cu  0.35350800  0.54496645  0.56937911     0.41990
Cu154      Cu  0.39744251  0.55452546  0.62235870     0.43880
N155        N  0.43124916  0.51899492  0.59686342    -0.34780
N156        N  0.42863616  0.53694123  0.61562504    -0.29030
C157        C  0.44927359  0.54358778  0.62541864    -0.05130
C158        C  0.46559707  0.52912624  0.61199390     0.07080
C159        C  0.45360639  0.51392463  0.59389954     0.00880
H160        H  0.45226917  0.55903270  0.63974315     0.08530
H161        H  0.46069089  0.50115085  0.57871086     0.07610
N162        N  0.36664241  0.57407932  0.62048208    -0.36230
N163        N  0.35089244  0.57114058  0.60140841    -0.28410
C164        C  0.33406648  0.58843487  0.60567995    -0.03650
C165        C  0.33976191  0.60314344  0.62814961     0.04960
C166        C  0.36031533  0.59323233  0.63720969     0.03050
H167        H  0.31916863  0.59072858  0.59284320     0.08160
H168        H  0.37015492  0.59954086  0.65457525     0.06990
N169        N  0.67285889  0.51147392  0.54898349    -0.27390
N170        N  0.65235562  0.50123167  0.54612852    -0.35250
C171        C  0.65148956  0.48816807  0.52263599     0.00950
C172        C  0.67239082  0.49025039  0.51002129     0.06970
C173        C  0.68557442  0.50524917  0.52715583    -0.06130
H174        H  0.63621336  0.47949788  0.51432349     0.07640
H175        H  0.70252489  0.51254951  0.52318959     0.08840
Cu176      Cu  0.62489014  0.50932489  0.57100699     0.44170
Cu177      Cu  0.68094393  0.53650945  0.58050343     0.41990
Cu178      Cu  0.63189076  0.55746742  0.62183534     0.43880
N179        N  0.59802551  0.52375878  0.59356763    -0.34780
N180        N  0.60042995  0.54154025  0.61256123    -0.29030
C181        C  0.57967756  0.54798023  0.62220305    -0.05130
C182        C  0.56354768  0.53371059  0.60826378     0.07080
C183        C  0.57575626  0.51851874  0.59038688     0.00880
H184        H  0.57651981  0.56266733  0.63734295     0.08530
H185        H  0.56891392  0.50514829  0.57562569     0.07610
N186        N  0.66480537  0.57156315  0.62575286    -0.36230
N187        N  0.68258910  0.56378893  0.61137958    -0.28410
C188        C  0.70090721  0.57779810  0.61864525    -0.03650
C189        C  0.69439775  0.59512222  0.63863622     0.04960
C190        C  0.67131225  0.59079398  0.64227372     0.03050
H191        H  0.71759185  0.57603038  0.60943410     0.08160
H192        H  0.65980134  0.60154186  0.65521436     0.06990
N193        N  0.86157102  0.92970735  0.86148211    -0.27390
N194        N  0.88174050  0.94102828  0.86238738    -0.35250
C195        C  0.88300978  0.95569882  0.88478048     0.00950
C196        C  0.86265797  0.95371968  0.89871226     0.06970
C197        C  0.84953137  0.93677812  0.88356420    -0.06130
H198        H  0.89826597  0.96560267  0.89141059     0.07640
H199        H  0.83284420  0.92939024  0.88874927     0.08840
Cu200      Cu  0.90815650  0.93341429  0.83576953     0.44170
Cu201      Cu  0.85260003  0.90364349  0.83117362     0.41990
Cu202      Cu  0.89827710  0.88894551  0.78217662     0.43880
N203        N  0.93379510  0.92018503  0.81052313    -0.34780
N204        N  0.93026929  0.90381028  0.79041451    -0.29030
C205        C  0.95048771  0.89722645  0.77940101    -0.05130
C206        C  0.96745490  0.90999416  0.79351868     0.07080
C207        C  0.95629188  0.92441176  0.81300523     0.00880
H208        H  0.95273760  0.88315632  0.76340681     0.08530
H209        H  0.96402348  0.93624161  0.82858733     0.07610
N210        N  0.86589983  0.87313958  0.78118206    -0.36230
N211        N  0.84947506  0.87798597  0.79887269    -0.28410
C212        C  0.83163554  0.86252866  0.79337144    -0.03650
C213        C  0.83702854  0.84749364  0.77102810     0.04960
C214        C  0.85895395  0.85459325  0.76407091     0.03050
H215        H  0.81616902  0.86167574  0.80530743     0.08160
H216        H  0.86975277  0.84575858  0.74889304     0.06990
N217        N  0.17200636  0.93220351  0.85758360    -0.27390
N218        N  0.15105625  0.94142056  0.85984747    -0.35250
C219        C  0.14972310  0.95628998  0.88204005     0.00950
C220        C  0.17091902  0.95685653  0.89435514     0.06970
C221        C  0.18461633  0.94100343  0.87854393    -0.06130
H222        H  0.13403727  0.96469500  0.88954575     0.07640
H223        H  0.20219709  0.93565654  0.88245233     0.08840
Cu224      Cu  0.12438141  0.93179060  0.83452278     0.44170
Cu225      Cu  0.18103426  0.90676286  0.82677149     0.41990
Cu226      Cu  0.13502919  0.89311598  0.77661529     0.43880
N227        N  0.09886321  0.91976934  0.80866472    -0.34780
N228        N  0.10255011  0.90593305  0.78659319    -0.29030
C229        C  0.08230771  0.90007107  0.77510514    -0.05130
C230        C  0.06521937  0.91077389  0.79093722     0.07080
C231        C  0.07633486  0.92294958  0.81204928     0.00880
H232        H  0.08016634  0.88777910  0.75754184     0.08530
H233        H  0.06857230  0.93269347  0.82913672     0.07610
N234        N  0.16761467  0.87731688  0.77588729    -0.36230
N235        N  0.18380935  0.88141210  0.79419578    -0.28410
C236        C  0.20140907  0.86536140  0.78919070    -0.03650
C237        C  0.19615876  0.85081947  0.76650493     0.04960
C238        C  0.17460539  0.85879667  0.75872411     0.03050
H239        H  0.21655777  0.86374680  0.80171493     0.08160
H240        H  0.16409131  0.85052030  0.74289129     0.06990
N241        N  0.86181130  0.00925662  0.04759537    -0.27390
N242        N  0.88202224  0.99791706  0.04599557    -0.35250
C243        C  0.88285173  0.98374409  0.02319138     0.00950
C244        C  0.86225635  0.98629193  0.00974848     0.06970
C245        C  0.84937048  0.00283000  0.02558107    -0.06130
H246        H  0.89797283  0.97398394  0.01581557     0.07640
H247        H  0.83274611  0.01076588  0.02069960     0.08840
Cu248      Cu  0.90934722  0.00615485  0.07136851     0.44170
Cu249      Cu  0.85340490  0.03554242  0.07778096     0.41990
Cu250      Cu  0.90157808  0.05768342  0.11878140     0.43880
N251        N  0.93588678  0.02204411  0.09364890    -0.34780
N252        N  0.93314724  0.04147043  0.11070138    -0.29030
C253        C  0.95368721  0.04875012  0.12024415    -0.05130
C254        C  0.97013774  0.03313921  0.10850910     0.07080
C255        C  0.95822263  0.01631162  0.09196898     0.00880
H256        H  0.95635871  0.06423936  0.13458583     0.08530
H257        H  0.96535916  0.00155817  0.07895078     0.07610
N258        N  0.86868587  0.07200219  0.12192852    -0.36230
N259        N  0.85111296  0.06392207  0.10738831    -0.28410
C260        C  0.83268761  0.07828204  0.11363316    -0.03650
C261        C  0.83908453  0.09657859  0.13271186     0.04960
C262        C  0.86194916  0.09171829  0.13766733     0.03050
H263        H  0.81601308  0.07549468  0.10472665     0.08160
H264        H  0.87314180  0.10241675  0.15103423     0.06990
N265        N  0.17491065  0.01499477  0.04198007    -0.27390
N266        N  0.15515767  0.00276534  0.04101895    -0.35250
C267        C  0.15421809  0.98870364  0.01816218     0.00950
C268        C  0.17432017  0.99215334  0.00410480     0.06970
C269        C  0.18700378  0.00914665  0.01957212    -0.06130
H270        H  0.13932995  0.97823486  0.01129799     0.07640
H271        H  0.20318339  0.01775002  0.01421427     0.08840
Cu272      Cu  0.12859369  0.00907197  0.06789708     0.44170
Cu273      Cu  0.18303004  0.04122816  0.07223301     0.41990
Cu274      Cu  0.13655090  0.05671290  0.11937543     0.43880
N275        N  0.10243856  0.02217214  0.09256122    -0.34780
N276        N  0.10511266  0.04030403  0.11113063    -0.29030
C277        C  0.08460293  0.04628492  0.12174124    -0.05130
C278        C  0.06836758  0.03077845  0.10953383     0.07080
C279        C  0.08024909  0.01592651  0.09099705     0.00880
H280        H  0.08167265  0.06113473  0.13677301     0.08530
H281        H  0.07314909  0.00248580  0.07648564     0.07610
N282        N  0.16912617  0.07195968  0.12166057    -0.36230
N283        N  0.18575570  0.06697460  0.10428479    -0.28410
C284        C  0.20368508  0.08214786  0.11012927    -0.03650
C285        C  0.19816625  0.09701274  0.13247219     0.04960
C286        C  0.17613193  0.09017747  0.13914336     0.03050
H287        H  0.21929057  0.08290552  0.09844362     0.08160
H288        H  0.16544504  0.09892531  0.15451082     0.06990
N289        N  0.86010090  0.50909940  0.85822332    -0.27390
N290        N  0.87732773  0.49291085  0.85485744    -0.35250
C291        C  0.87914571  0.47776195  0.87682544     0.00950
C292        C  0.86261684  0.48488135  0.89547817     0.06970
C293        C  0.85076319  0.50487776  0.88284245    -0.06130
H294        H  0.89304710  0.46430942  0.88012143     0.07640
H295        H  0.83796563  0.51725671  0.89180289     0.08840
Cu296      Cu  0.90258026  0.49715231  0.82593021     0.44170
Cu297      Cu  0.85286930  0.53857165  0.83065526     0.41990
Cu298      Cu  0.89737525  0.54831486  0.77905343     0.43880
N299        N  0.93030738  0.51212707  0.80535931    -0.34780
N300        N  0.92848184  0.53144415  0.78799440    -0.29030
C301        C  0.94950403  0.53952212  0.78113774    -0.05130
C302        C  0.96530275  0.52476011  0.79525686     0.07080
C303        C  0.95251388  0.50734676  0.81011165     0.00880
H304        H  0.95299587  0.55592243  0.76821361     0.08530
H305        H  0.95877733  0.49282575  0.82405773     0.07610
N306        N  0.86658562  0.56781599  0.78000648    -0.36230
N307        N  0.85089410  0.56532031  0.79908305    -0.28410
C308        C  0.83456304  0.58324067  0.79493924    -0.03650
C309        C  0.84042780  0.59787161  0.77242660     0.04960
C310        C  0.86058984  0.58709593  0.76321445     0.03050
H311        H  0.81988687  0.58601839  0.80793392     0.08160
H312        H  0.87046631  0.59275071  0.74572761     0.06990
N313        N  0.17284686  0.51431760  0.85827254    -0.27390
N314        N  0.15321938  0.50191744  0.85986858    -0.35250
C315        C  0.15311574  0.48749979  0.88253942     0.00950
C316        C  0.17352313  0.49117649  0.89605105     0.06970
C317        C  0.18568472  0.50830622  0.88013391    -0.06130
H318        H  0.13858912  0.47660615  0.88968929     0.07640
H319        H  0.20216136  0.51665428  0.88466299     0.08840
Cu320      Cu  0.12576344  0.50863697  0.83425549     0.44170
Cu321      Cu  0.17972347  0.54107881  0.82804923     0.41990
Cu322      Cu  0.13093217  0.55932960  0.78509096     0.43880
N323        N  0.09859424  0.52229115  0.81136956    -0.34780
N324        N  0.10031241  0.54097845  0.79322919    -0.29030
C325        C  0.07934086  0.54681045  0.78370778    -0.05130
C326        C  0.06370558  0.53092864  0.79650909     0.07080
C327        C  0.07655147  0.51579875  0.81400316     0.00880
H328        H  0.07570685  0.56246508  0.76981418     0.08530
H329        H  0.07022209  0.50171512  0.82833341     0.07610
N330        N  0.16291794  0.57622794  0.78311396    -0.36230
N331        N  0.18058425  0.56951315  0.79836920    -0.28410
C332        C  0.19827953  0.58498346  0.79250818    -0.03650
C333        C  0.19131903  0.60261316  0.77296051     0.04960
C334        C  0.16890404  0.59619793  0.76727411     0.03050
H335        H  0.21495362  0.58319093  0.80174775     0.08160
H336        H  0.15755345  0.60579871  0.75309847     0.06990
N337        N  0.86385184  0.43065248  0.04638502    -0.27390
N338        N  0.88179797  0.44562310  0.05003991    -0.35250
C339        C  0.88438665  0.46087342  0.02827944     0.00950
C340        C  0.86795054  0.45459173  0.00916459     0.06970
C341        C  0.85485773  0.43569744  0.02167686    -0.06130
H342        H  0.89808314  0.47454145  0.02630041     0.07640
H343        H  0.84084161  0.42513797  0.01271814     0.08840
Cu344      Cu  0.90659081  0.43986056  0.07939621     0.44170
Cu345      Cu  0.85461886  0.40229256  0.07434243     0.41990
Cu346      Cu  0.90133968  0.38471397  0.12103551     0.43880
N347        N  0.93393994  0.42408933  0.10037558    -0.34780
N348        N  0.93209729  0.40338797  0.11579374    -0.29030
C349        C  0.95294286  0.39637439  0.12471604    -0.05130
C350        C  0.96885939  0.41328440  0.11389599     0.07080
C351        C  0.95602809  0.43070241  0.09876672     0.00880
H352        H  0.95600254  0.38010242  0.13791316     0.08530
H353        H  0.96241361  0.44638671  0.08645715     0.07610
N354        N  0.86897383  0.36904979  0.12208249    -0.36230
N355        N  0.85186876  0.37546742  0.10580069    -0.28410
C356        C  0.83351073  0.36127384  0.11252574    -0.03650
C357        C  0.83934141  0.34532152  0.13415094     0.04960
C358        C  0.86207328  0.35055382  0.13924349     0.03050
H359        H  0.81722433  0.36219679  0.10213989     0.08160
H360        H  0.87308918  0.34110411  0.15389247     0.06990
N361        N  0.17498298  0.43081510  0.04314192    -0.27390
N362        N  0.15505618  0.44277590  0.04150187    -0.35250
C363        C  0.15442582  0.45699292  0.01871787     0.00950
C364        C  0.17479780  0.45368000  0.00516773     0.06970
C365        C  0.18749223  0.43691468  0.02114008    -0.06130
H366        H  0.13961553  0.46757926  0.01159340     0.07640
H367        H  0.20414335  0.42894242  0.01660289     0.08840
Cu368      Cu  0.12800123  0.43626955  0.06745688     0.44170
Cu369      Cu  0.18292211  0.40504189  0.07410886     0.41990
Cu370      Cu  0.13549031  0.39001535  0.12028589     0.43880
N371        N  0.10160888  0.42414122  0.09210357    -0.34780
N372        N  0.10420975  0.40692339  0.11166092    -0.29030
C373        C  0.08369902  0.40191294  0.12269252    -0.05130
C374        C  0.06746939  0.41699692  0.10960846     0.07080
C375        C  0.07944444  0.43056315  0.09009295     0.00880
H376        H  0.08073532  0.38792013  0.13860640     0.08530
H377        H  0.07249783  0.44309855  0.07455797     0.07610
N378        N  0.16785492  0.37394895  0.12287849    -0.36230
N379        N  0.18493781  0.37912136  0.10624062    -0.28410
C380        C  0.20266697  0.36361810  0.11244770    -0.03650
C381        C  0.19652271  0.34816527  0.13415996     0.04960
C382        C  0.17428268  0.35510946  0.14004293     0.03050
H383        H  0.21856950  0.36296809  0.10132423     0.08160
H384        H  0.16298192  0.34598543  0.15445521     0.06990
O385        O  0.27285720  0.75183784  0.66500917    -0.73050
O386        O  0.23355631  0.69788020  0.69996122    -0.74030
O387        O  0.23577567  0.75285681  0.70073031    -0.62650
O388        O  0.27086887  0.69650994  0.66384815    -0.71060
O389        O  0.29576466  0.69612007  0.69793734    -0.70610
O390        O  0.25861255  0.74993079  0.73661080    -0.61860
O391        O  0.25837612  0.69467726  0.73370513    -0.74370
O392        O  0.29581116  0.75107285  0.70080230    -0.73150
Cu393      Cu  0.25243478  0.72478730  0.68116313     1.04560
Cu394      Cu  0.27795368  0.72284743  0.71849903     1.04330
C395        C  0.28995813  0.76089743  0.67803019     0.93150
C396        C  0.24024434  0.68689226  0.72179972     0.92290
C397        C  0.24190615  0.76067019  0.72422582     0.84440
C398        C  0.28875192  0.68729907  0.67520093     0.90710
O399        O  0.77216028  0.69401007  0.74072172    -0.73050
O400        O  0.73549595  0.74830782  0.70225802    -0.74030
O401        O  0.73630547  0.69332417  0.70305986    -0.62650
O402        O  0.77161271  0.74927951  0.74016652    -0.71060
O403        O  0.79626956  0.74947744  0.70609969    -0.70610
O404        O  0.76121632  0.69300279  0.66941517    -0.61860
O405        O  0.76043362  0.74830802  0.66840622    -0.74370
O406        O  0.79731667  0.69440734  0.70711059    -0.73150
Cu407      Cu  0.75303439  0.72126109  0.72273241     1.04560
Cu408      Cu  0.77967798  0.72129522  0.68658191     1.04330
C409        C  0.79013972  0.68506098  0.72951599     0.93150
C410        C  0.74239420  0.75720203  0.67953312     0.92290
C411        C  0.74349587  0.68366634  0.68077504     0.84440
C412        C  0.78921543  0.75870977  0.72863658     0.90710
O413        O  0.27341517  0.19427143  0.23673078    -0.73050
O414        O  0.23743618  0.24960504  0.19910571    -0.74030
O415        O  0.23771159  0.19438116  0.19894874    -0.62650
O416        O  0.27331428  0.24956352  0.23686821    -0.71060
O417        O  0.29803252  0.24986540  0.20304303    -0.70610
O418        O  0.26255433  0.19468346  0.16500270    -0.61860
O419        O  0.26216309  0.24977899  0.16513365    -0.74370
O420        O  0.29858055  0.19475565  0.20304172    -0.73150
Cu421      Cu  0.25459361  0.22194790  0.21907309     1.04560
Cu422      Cu  0.28121175  0.22225600  0.18288169     1.04330
C423        C  0.29138819  0.18543649  0.22545079     0.93150
C424        C  0.24437411  0.25894934  0.17657154     0.92290
C425        C  0.24482149  0.18538466  0.17634233     0.84440
C426        C  0.29096829  0.25911134  0.22558651     0.90710
O427        O  0.77327049  0.24803768  0.16806514    -0.73050
O428        O  0.73824334  0.19260789  0.20582903    -0.74030
O429        O  0.73700379  0.24777920  0.20505586    -0.62650
O430        O  0.77448733  0.19281262  0.16911456    -0.71060
O431        O  0.79881941  0.19385363  0.20350827    -0.70610
O432        O  0.76143469  0.24888984  0.23939332    -0.61860
O433        O  0.76247119  0.19358621  0.24048596    -0.74370
O434        O  0.79773130  0.24911281  0.20230321    -0.73150
Cu435      Cu  0.75490104  0.22028889  0.18585738     1.04560
Cu436      Cu  0.78097379  0.22141169  0.22261859     1.04330
C437        C  0.79073544  0.25794843  0.17946534     0.93150
C438        C  0.74528250  0.18358562  0.22848956     0.92290
C439        C  0.74368086  0.25773222  0.22741007     0.84440
C440        C  0.79218270  0.18387254  0.18116108     0.90710
C441        C  0.22288078  0.29957515  0.18290380    -0.20410
C442        C  0.23235706  0.28156489  0.16480348    -0.06980
C443        C  0.23071485  0.28615778  0.13650619     0.13890
C444        C  0.21917289  0.30827651  0.12719710    -0.20460
C445        C  0.20934007  0.32593714  0.14535446    -0.06980
C446        C  0.21162006  0.32180458  0.17359765     0.13880
C447        C  0.20320403  0.34124719  0.19406198    -0.23810
H448        H  0.22468422  0.29649289  0.20459398     0.15170
H449        H  0.21745434  0.31159262  0.10553900     0.15200
C450        C  0.24039143  0.26759419  0.11595725    -0.23760
H451        H  0.20815366  0.33581992  0.21511038     0.05410
H452        H  0.18434658  0.34257262  0.19348610     0.08640
H453        H  0.21067455  0.36045509  0.18964254     0.08640
H454        H  0.23317620  0.24808143  0.11927419     0.08620
H455        H  0.25925967  0.26682765  0.11775171     0.08620
H456        H  0.23624923  0.27354029  0.09482188     0.05390
C457        C  0.00530707  0.43707320  0.11677750    -0.20410
C458        C  0.99420743  0.41309086  0.11612966    -0.06980
C459        C  0.00760857  0.39023548  0.11514318     0.13890
C460        C  0.03151489  0.39220151  0.11382987    -0.20460
C461        C  0.04239407  0.41625601  0.11317502    -0.06980
C462        C  0.02914045  0.43898181  0.11535259     0.13880
C463        C  0.03994884  0.46530356  0.11692770    -0.23810
H464        H  0.99519359  0.45458059  0.11804755     0.15170
H465        H  0.04178802  0.37481723  0.11241883     0.15200
C466        C  0.99714092  0.36373825  0.11416688    -0.23760
H467        H  0.02709004  0.48063991  0.12086381     0.05410
H468        H  0.04841664  0.47012554  0.09750878     0.08640
H469        H  0.05262947  0.46571983  0.13372004     0.08640
H470        H  0.98450725  0.36260950  0.09736829     0.08620
H471        H  0.98894175  0.35929064  0.13386057     0.08620
H472        H  0.01018867  0.34850848  0.11065014     0.05390
C473        C  0.81105901  0.31004475  0.12985042    -0.20410
C474        C  0.82545172  0.32460695  0.14667897    -0.06980
C475        C  0.82738798  0.31784295  0.17446452     0.13890
C476        C  0.81653574  0.29556390  0.18396188    -0.20460
C477        C  0.80247172  0.28055062  0.16708154    -0.06980
C478        C  0.79929565  0.28837240  0.13965753     0.13880
C479        C  0.78401074  0.27395995  0.12024778    -0.23810
H480        H  0.80938522  0.31530371  0.10862481     0.15170
H481        H  0.81846262  0.29050378  0.20522594     0.15200
C482        C  0.83966948  0.33418939  0.19516785    -0.23760
H483        H  0.78449705  0.28229609  0.09946221     0.05410
H484        H  0.76603943  0.27505939  0.12724803     0.08640
H485        H  0.78957333  0.25350845  0.11881483     0.08640
H486        H  0.84464186  0.35334893  0.18727407     0.08620
H487        H  0.85506416  0.32379277  0.20262431     0.08620
H488        H  0.82818238  0.33794047  0.21264927     0.05390
C489        C  0.17909945  0.45541027  0.92859173    -0.20410
C490        C  0.17863115  0.48208422  0.92382226    -0.06980
C491        C  0.17963201  0.49932200  0.94601933     0.13890
C492        C  0.17986570  0.48938285  0.97255335    -0.20460
C493        C  0.17939264  0.46271981  0.97732316    -0.06980
C494        C  0.17961839  0.44547999  0.95512242     0.13880
C495        C  0.17896862  0.41668975  0.95932873    -0.23810
H496        H  0.17813019  0.44231545  0.91146706     0.15170
H497        H  0.17944930  0.50247352  0.98971434     0.15200
C498        C  0.17897821  0.52813235  0.94190315    -0.23760
H499        H  0.17850139  0.40610646  0.93972851     0.05410
H500        H  0.16352209  0.41136986  0.97105918     0.08640
H501        H  0.19443574  0.41033596  0.97057627     0.08640
H502        H  0.16326800  0.53367533  0.93062740     0.08620
H503        H  0.19419460  0.53434181  0.93027840     0.08620
H504        H  0.17902434  0.53867545  0.96153616     0.05390
C505        C  0.20200930  0.62779582  0.73229806    -0.20410
C506        C  0.20445023  0.62386832  0.76032257    -0.06980
C507        C  0.21818698  0.64101491  0.77549658     0.13890
C508        C  0.22925291  0.66132926  0.76210728    -0.20460
C509        C  0.22720039  0.66512626  0.73389446    -0.06980
C510        C  0.21339832  0.64774696  0.71868900     0.13880
C511        C  0.21045505  0.64833008  0.68820487    -0.23810
H512        H  0.19144998  0.61465051  0.72065179     0.15170
H513        H  0.23955425  0.67453917  0.77396171     0.15200
C514        C  0.22057951  0.63891888  0.80591658    -0.23760
H515        H  0.19234758  0.65260552  0.68315754     0.05410
H516        H  0.21488783  0.62908995  0.67976008     0.08640
H517        H  0.22128213  0.66226551  0.67746870     0.08640
H518        H  0.23042890  0.62138064  0.81135313     0.08620
H519        H  0.20346092  0.63836876  0.81550903     0.08620
H520        H  0.22992530  0.65561727  0.81458750     0.05390
C521        C  0.88432236  0.47404581  0.93704595    -0.20410
C522        C  0.86292472  0.47775864  0.92479335    -0.06980
C523        C  0.84303830  0.47357644  0.94042303     0.13890
C524        C  0.84523746  0.46636225  0.96794896    -0.20460
C525        C  0.86676445  0.46301915  0.98023723    -0.06980
C526        C  0.88660220  0.46634723  0.96415263     0.13880
C527        C  0.91037411  0.46054945  0.97441558    -0.23810
H528        H  0.89965269  0.47723372  0.92526380     0.15170
H529        H  0.83001508  0.46324492  0.97996770     0.15200
C530        C  0.81955318  0.47557479  0.92808058    -0.23760
H531        H  0.92290803  0.45952608  0.95755258     0.05410
H532        H  0.91080977  0.44157385  0.98489280     0.08640
H533        H  0.91627925  0.47613953  0.98804593     0.08640
H534        H  0.81836306  0.46284922  0.91000384     0.08620
H535        H  0.81586384  0.49577907  0.92214342     0.08620
H536        H  0.80613019  0.46959201  0.94265677     0.05390
C537        C  0.00225266  0.52866514  0.77113559    -0.20410
C538        C  0.99036179  0.52821258  0.79583423    -0.06980
C539        C  0.00257089  0.53116126  0.82045955     0.13890
C540        C  0.02644730  0.53265504  0.81980557    -0.20460
C541        C  0.03846173  0.53186660  0.79521933    -0.06980
C542        C  0.02619485  0.53042004  0.77049072     0.13880
C543        C  0.03821466  0.52950568  0.74350621    -0.23810
H544        H  0.99277849  0.52690499  0.75228113     0.15170
H545        H  0.03587142  0.53437016  0.83870382     0.15200
C546        C  0.99060934  0.53372163  0.84741097    -0.23760
H547        H  0.02601770  0.52685784  0.72642887     0.05410
H548        H  0.05050267  0.51315185  0.74319535     0.08640
H549        H  0.04740248  0.54785183  0.73994038     0.08640
H550        H  0.98202090  0.51544882  0.85284135     0.08620
H551        H  0.97786648  0.54960950  0.84639015     0.08620
H552        H  0.00277096  0.53822955  0.86408166     0.05390
C553        C  0.80407809  0.61975492  0.76053766    -0.20410
C554        C  0.82801536  0.62064700  0.76151660    -0.06980
C555        C  0.83930393  0.64347999  0.75313455     0.13890
C556        C  0.82637390  0.66430901  0.74324310    -0.20460
C557        C  0.80253505  0.66322289  0.74197004    -0.06980
C558        C  0.79117854  0.64069667  0.75078607     0.13880
C559        C  0.76558337  0.63817485  0.74889948    -0.23810
H560        H  0.79542114  0.60236994  0.76703725     0.15170
H561        H  0.83493393  0.68167449  0.73648066     0.15200
C562        C  0.86479346  0.64674211  0.75545951    -0.23760
H563        H  0.75973037  0.61878193  0.75543849     0.05410
H564        H  0.75992371  0.64117629  0.72757526     0.08640
H565        H  0.75724209  0.65263687  0.76222270     0.08640
H566        H  0.87360715  0.63466967  0.74018025     0.08620
H567        H  0.87061987  0.64159052  0.77625295     0.08620
H568        H  0.87000751  0.66699126  0.75154854     0.05390
C569        C  0.22734201  0.14249661  0.18157077    -0.20410
C570        C  0.23314750  0.16297613  0.16426546    -0.06980
C571        C  0.22820218  0.16120572  0.13621239     0.13890
C572        C  0.21728310  0.13905845  0.12627116    -0.20460
C573        C  0.21112847  0.11884893  0.14371518    -0.06980
C574        C  0.21652447  0.12035842  0.17161245     0.13880
C575        C  0.21161600  0.09834358  0.19073460    -0.23810
H576        H  0.23161845  0.14368103  0.20298243     0.15170
H577        H  0.21298297  0.13776687  0.10487957     0.15200
C578        C  0.23344815  0.18297728  0.11693550    -0.23760
H579        H  0.21801507  0.10231335  0.21157328     0.05410
H580        H  0.22011628  0.08051773  0.18331502     0.08640
H581        H  0.19296930  0.09505899  0.19207404     0.08640
H582        H  0.25214536  0.18606265  0.11582738     0.08620
H583        H  0.22495069  0.20091442  0.12402316     0.08620
H584        H  0.22726755  0.17884005  0.09604357     0.05390
C585        C  0.00662411  0.01109861  0.11860752    -0.20410
C586        C  0.99520435  0.03406409  0.11188388    -0.06980
C587        C  0.00800700  0.05657498  0.10641049     0.13890
C588        C  0.03197497  0.05526235  0.10704045    -0.20460
C589        C  0.04332660  0.03196765  0.11262231    -0.06980
C590        C  0.03053036  0.00980737  0.11921951     0.13880
C591        C  0.04202270  0.98489824  0.12735580    -0.23810
H592        H  0.99673939  0.99396491  0.12304296     0.15170
H593        H  0.04191515  0.07220316  0.10200787     0.15200
C594        C  0.99660815  0.08155347  0.09833975    -0.23760
H595        H  0.02941932  0.96993271  0.13317316     0.05410
H596        H  0.05338953  0.98832616  0.14506734     0.08640
H597        H  0.05221270  0.97716581  0.11024699     0.08640
H598        H  0.98608242  0.08892388  0.11533841     0.08620
H599        H  0.98564222  0.07844117  0.08021147     0.08620
H600        H  0.00927736  0.09668337  0.09322950     0.05390
C601        C  0.82907186  0.12345835  0.17236014    -0.20410
C602        C  0.82555160  0.11790106  0.14479397    -0.06980
C603        C  0.81106134  0.13414803  0.12928044     0.13890
C604        C  0.80079104  0.15558648  0.14173594    -0.20460
C605        C  0.80449475  0.16139041  0.16928682    -0.06980
C606        C  0.81872616  0.14478260  0.18489910     0.13880
C607        C  0.82291368  0.14880491  0.21484862    -0.23810
H608        H  0.84012493  0.11094433  0.18423253     0.15170
H609        H  0.78984329  0.16804846  0.12968610     0.15200
C610        C  0.80692131  0.12983937  0.09940536    -0.23760
H611        H  0.83364847  0.13321600  0.22374233     0.05410
H612        H  0.80642224  0.14890982  0.22591694     0.08640
H613        H  0.83203909  0.16726437  0.21818927     0.08640
H614        H  0.79689694  0.11199239  0.09634805     0.08620
H615        H  0.82342830  0.12851161  0.08847101     0.08620
H616        H  0.79695474  0.14588092  0.09015685     0.05390
C617        C  0.18513165  0.95178088  0.94156455    -0.20410
C618        C  0.17594835  0.96793845  0.92135927    -0.06980
C619        C  0.16962267  0.99353728  0.92806453     0.13890
C620        C  0.17076740  0.00155156  0.95522921    -0.20460
C621        C  0.17808725  0.98463592  0.97567413    -0.06980
C622        C  0.18610495  0.95983356  0.96877638     0.13880
C623        C  0.19502669  0.94170623  0.99026436    -0.23810
H624        H  0.19029428  0.93231235  0.93633770     0.15170
H625        H  0.16495214  0.02072086  0.96074702     0.15200
C626        C  0.16186339  0.01256633  0.90672857    -0.23760
H627        H  0.20075389  0.92306866  0.98143747     0.05410
H628        H  0.18142973  0.93763980  0.00531661     0.08640
H629        H  0.20978873  0.95066360  0.00079783     0.08640
H630        H  0.14541224  0.00653809  0.89767475     0.08620
H631        H  0.17496848  0.01400717  0.89055867     0.08620
H632        H  0.15928545  0.03213766  0.91539891     0.05390
C633        C  0.21437270  0.80808706  0.77345433    -0.20410
C634        C  0.20880669  0.82840952  0.75574761    -0.06980
C635        C  0.21458272  0.82656149  0.72801505     0.13890
C636        C  0.22518306  0.80406100  0.71849469    -0.20460
C637        C  0.23042225  0.78346912  0.73603084    -0.06980
C638        C  0.22509543  0.78555407  0.76394183     0.13880
C639        C  0.22981676  0.76381206  0.78353518    -0.23810
H640        H  0.20981379  0.80963275  0.79472397     0.15170
H641        H  0.22974549  0.80268683  0.69720722     0.15200
C642        C  0.21035198  0.84859107  0.70859442    -0.23760
H643        H  0.22329098  0.76820967  0.80418812     0.05410
H644        H  0.24847035  0.76045245  0.78528596     0.08640
H645        H  0.22135229  0.74592990  0.77633292     0.08640
H646        H  0.21895039  0.86624206  0.71618671     0.08620
H647        H  0.19179267  0.85233992  0.70655640     0.08620
H648        H  0.21709158  0.84433868  0.68800408     0.05390
C649        C  0.85371344  0.94522828  0.94707875    -0.20410
C650        C  0.85844099  0.96323479  0.92654789    -0.06980
C651        C  0.86130480  0.98952213  0.93342356     0.13890
C652        C  0.86088634  0.99686069  0.96085601    -0.20460
C653        C  0.85796574  0.97849253  0.98143821    -0.06980
C654        C  0.85370238  0.95255098  0.97454161     0.13880
C655        C  0.84962412  0.93258524  0.99621468    -0.23810
H656        H  0.85130324  0.92513834  0.94173598     0.15170
H657        H  0.86394778  0.01680063  0.96636118     0.15200
C658        C  0.86474361  0.00987803  0.91194327    -0.23760
H659        H  0.84631464  0.91324777  0.98736198     0.05410
H660        H  0.83457002  0.93824550  0.00853274     0.08640
H661        H  0.86481169  0.93105967  0.00965670     0.08640
H662        H  0.85033379  0.00941196  0.89726002     0.08620
H663        H  0.88098664  0.00652044  0.90100678     0.08620
H664        H  0.86548455  0.02953437  0.92087027     0.05390
C665        C  0.00350066  0.91714308  0.76836563    -0.20410
C666        C  0.99234088  0.90669464  0.79099380    -0.06980
C667        C  0.00523058  0.89493214  0.81190392     0.13890
C668        C  0.02909642  0.89548844  0.81061340    -0.20460
C669        C  0.04032961  0.90723708  0.78878951    -0.06980
C670        C  0.02747196  0.91761964  0.76705412     0.13880
C671        C  0.03897439  0.93039583  0.74329704    -0.23810
H672        H  0.99345541  0.92596564  0.75230567     0.15170
H673        H  0.03909769  0.88727313  0.82707174     0.15200
C674        C  0.99386112  0.88173967  0.83555002    -0.23760
H675        H  0.02636647  0.93809238  0.72844317     0.05410
H676        H  0.04996854  0.91619695  0.73263209     0.08640
H677        H  0.04961441  0.94670306  0.75054092     0.08640
H678        H  0.98232430  0.86638760  0.82793946     0.08620
H679        H  0.98385360  0.89589675  0.84752272     0.08620
H680        H  0.00652892  0.87263766  0.84942443     0.05390
C681        C  0.81493072  0.80733954  0.77805774    -0.20410
C682        C  0.82394170  0.82553453  0.75991533    -0.06980
C683        C  0.82076212  0.82207659  0.73168814     0.13890
C684        C  0.80951615  0.79995871  0.72233873    -0.20460
C685        C  0.80095466  0.78138653  0.74039704    -0.06980
C686        C  0.80343688  0.78530337  0.76870219     0.13880
C687        C  0.79477355  0.76603580  0.78914056    -0.23810
H688        H  0.81733265  0.81012150  0.79970029     0.15170
H689        H  0.80706550  0.79734510  0.70067384     0.15200
C690        C  0.82823524  0.84208585  0.71133072    -0.23760
H691        H  0.79945043  0.77151386  0.81023722     0.05410
H692        H  0.80224707  0.74672556  0.78497360     0.08640
H693        H  0.77588193  0.76498109  0.78812216     0.08640
H694        H  0.84707842  0.84352234  0.71097289     0.08620
H695        H  0.82072786  0.86112483  0.71662137     0.08620
H696        H  0.82259048  0.83715869  0.69041415     0.05390
C697        C  0.72327943  0.62965002  0.63337715    -0.20410
C698        C  0.70813128  0.61637184  0.65040425    -0.06980
C699        C  0.70551959  0.62471464  0.67757380     0.13890
C700        C  0.71668910  0.64710185  0.68622248    -0.20460
C701        C  0.73158108  0.66080161  0.66914296    -0.06980
C702        C  0.73525071  0.65150975  0.64237630     0.13880
C703        C  0.75131728  0.66450778  0.62283425    -0.23810
H704        H  0.72542576  0.62320011  0.61260302     0.15170
H705        H  0.71428833  0.65330626  0.70705308     0.15200
C706        C  0.69212089  0.60997714  0.69857657    -0.23760
H707        H  0.75122115  0.65508033  0.60257960     0.05410
H708        H  0.76906367  0.66339783  0.63071388     0.08640
H709        H  0.74618661  0.68496598  0.61991030     0.08640
H710        H  0.68665873  0.59068796  0.69156057     0.08620
H711        H  0.67690582  0.62138808  0.70468466     0.08620
H712        H  0.70299042  0.60664819  0.71677932     0.05390
C713        C  0.52773561  0.52628322  0.63378435    -0.20410
C714        C  0.53848653  0.53540558  0.61025866    -0.06980
C715        C  0.52513483  0.54447067  0.58828239     0.13890
C716        C  0.50129142  0.54276263  0.58970628    -0.20460
C717        C  0.49055281  0.53257424  0.61271900    -0.06980
C718        C  0.50381916  0.52471991  0.63524281     0.13880
C719        C  0.49278519  0.51371460  0.66026483    -0.23810
H720        H  0.53810181  0.51949782  0.65063000     0.15170
H721        H  0.49094537  0.54913931  0.57266239     0.15200
C722        C  0.53598680  0.55625910  0.56349885    -0.23760
H723        H  0.50565282  0.50802340  0.67578188     0.05410
H724        H  0.48274619  0.49633807  0.65477789     0.08640
H725        H  0.48126173  0.52832560  0.66943759     0.08640
H726        H  0.54671823  0.54175545  0.55295002     0.08620
H727        H  0.54673888  0.57288330  0.56963242     0.08620
H728        H  0.52298103  0.56335604  0.54880214     0.05390
C729        C  0.30379544  0.62179597  0.64580228    -0.20410
C730        C  0.32692389  0.62518667  0.63957558    -0.06980
C731        C  0.33722986  0.64948698  0.64414132     0.13890
C732        C  0.32430696  0.66947570  0.65574041    -0.20460
C733        C  0.30129107  0.66594597  0.66224550    -0.06980
C734        C  0.29085908  0.64188390  0.65718081     0.13880
C735        C  0.26631511  0.63711691  0.66453058    -0.23810
H736        H  0.29594005  0.60320497  0.64216549     0.15170
H737        H  0.33211896  0.68806661  0.65952095     0.15200
C738        C  0.36148210  0.65488980  0.63579482    -0.23760
H739        H  0.26113309  0.61693233  0.66022936     0.05410
H740        H  0.25512541  0.65010867  0.65246800     0.08640
H741        H  0.26372135  0.64078871  0.68653456     0.08640
H742        H  0.36375439  0.65026517  0.61394597     0.08620
H743        H  0.37354596  0.64328311  0.64816107     0.08620
H744        H  0.36598511  0.67549779  0.63876148     0.05390
C745        C  0.66974654  0.48948435  0.43346655    -0.20410
C746        C  0.67855662  0.46484994  0.42767034    -0.06980
C747        C  0.68805977  0.44992393  0.44909851     0.13890
C748        C  0.68713662  0.45944569  0.47583739    -0.20460
C749        C  0.67699045  0.48332132  0.48155866    -0.06980
C750        C  0.66875257  0.49883485  0.46012133     0.13880
C751        C  0.65820571  0.52490822  0.46546347    -0.23810
H752        H  0.66265723  0.50105792  0.41711736     0.15170
H753        H  0.69337825  0.44769801  0.49252973     0.15200
C754        C  0.69787589  0.42340398  0.44443416    -0.23760
H755        H  0.65285628  0.53463330  0.44635243     0.05410
H756        H  0.67077854  0.53746968  0.47590101     0.08640
H757        H  0.64287989  0.52278020  0.47846308     0.08640
H758        H  0.71339726  0.42480770  0.43170906     0.08620
H759        H  0.68503432  0.41088992  0.43440975     0.08620
H760        H  0.70298462  0.41396547  0.46379603     0.05390
C761        C  0.73337367  0.28445449  0.26742895    -0.20410
C762        C  0.73132409  0.28008010  0.23935831    -0.06980
C763        C  0.71876104  0.29796883  0.22333983     0.13890
C764        C  0.70837275  0.31923438  0.23593369    -0.20460
C765        C  0.71032908  0.32346704  0.26396954    -0.06980
C766        C  0.72306014  0.30583024  0.27996282     0.13880
C767        C  0.72517525  0.30864871  0.31032932    -0.23810
H768        H  0.74302251  0.27091667  0.27976207     0.15170
H769        H  0.69860944  0.33279051  0.22373674     0.15200
C770        C  0.71660981  0.29541473  0.19291394    -0.23760
H771        H  0.73396900  0.29180787  0.31968017     0.05410
H772        H  0.70797719  0.31020565  0.31960868     0.08640
H773        H  0.73541662  0.32593515  0.31532785     0.08640
H774        H  0.70700304  0.27766425  0.18774168     0.08620
H775        H  0.73383205  0.29476508  0.18355778     0.08620
H776        H  0.70722778  0.31195713  0.18377685     0.05390
C777        C  0.34494233  0.47370476  0.43158675    -0.20410
C778        C  0.36606706  0.46835669  0.41933352    -0.06980
C779        C  0.38614719  0.46974919  0.43534029     0.13890
C780        C  0.38469191  0.47823513  0.46223321    -0.20460
C781        C  0.36373834  0.48438135  0.47447849    -0.06980
C782        C  0.34345684  0.48155143  0.45897104     0.13880
C783        C  0.32018888  0.48574194  0.47113451    -0.23810
H784        H  0.32949163  0.47184808  0.41958285     0.15170
H785        H  0.40036970  0.48017561  0.47372730     0.15200
C786        C  0.40917247  0.46094976  0.42513443    -0.23760
H787        H  0.30640258  0.47969424  0.45699763     0.05410
H788        H  0.31745757  0.50647523  0.47544994     0.08640
H789        H  0.31846520  0.47424266  0.49005547     0.08640
H790        H  0.41627068  0.47520904  0.41074685     0.08620
H791        H  0.40772760  0.44171061  0.41538377     0.08620
H792        H  0.42176579  0.45905608  0.44193812     0.05390
C793        C  0.50602804  0.41166153  0.27075405    -0.20410
C794        C  0.49385200  0.41337591  0.29516616    -0.06980
C795        C  0.50579201  0.41283333  0.32011932     0.13890
C796        C  0.52968759  0.41184509  0.31998092    -0.20460
C797        C  0.54203380  0.41115209  0.29559211    -0.06980
C798        C  0.53002559  0.41068623  0.27059846     0.13880
C799        C  0.54226806  0.41039638  0.24373981    -0.23810
H800        H  0.49670023  0.41175076  0.25169907     0.15170
H801        H  0.53884607  0.41171116  0.33914855     0.15200
C802        C  0.49346599  0.41254548  0.34696506    -0.23760
H803        H  0.53017771  0.41205404  0.22639933     0.05410
H804        H  0.55170779  0.39199176  0.24128082     0.08640
H805        H  0.55429759  0.42686382  0.24260159     0.08640
H806        H  0.48139106  0.39608876  0.34756097     0.08620
H807        H  0.48398244  0.43085815  0.34991203     0.08620
H808        H  0.50548602  0.41039752  0.36431689     0.05390
C809        C  0.31042501  0.31310485  0.27351161    -0.20410
C810        C  0.32628417  0.32599390  0.25710803    -0.06980
C811        C  0.32959813  0.31744850  0.23010226     0.13890
C812        C  0.31852863  0.29510234  0.22116707    -0.20460
C813        C  0.30291568  0.28177403  0.23764319    -0.06980
C814        C  0.29844651  0.29140148  0.26412198     0.13880
C815        C  0.28143017  0.27901360  0.28295049    -0.23810
H816        H  0.30769359  0.31974570  0.29411888     0.15170
H817        H  0.32155879  0.28869230  0.20052571     0.15200
C818        C  0.34359874  0.33197072  0.20948700    -0.23760
H819        H  0.28086420  0.28875090  0.30302954     0.05410
H820        H  0.28613584  0.25851757  0.28650959     0.08640
H821        H  0.26402781  0.28034144  0.27406772     0.08640
H822        H  0.35907969  0.32060432  0.20428839     0.08620
H823        H  0.34863702  0.35144172  0.21640120     0.08620
H824        H  0.33333112  0.33493371  0.19073037     0.05390
C825        C  0.33592581  0.14441774  0.26087992    -0.20410
C826        C  0.32612615  0.11979786  0.25877346    -0.06980
C827        C  0.30464060  0.11697541  0.24603558     0.13890
C828        C  0.29345347  0.13894233  0.23579051    -0.20460
C829        C  0.30339329  0.16344130  0.23778254    -0.06980
C830        C  0.32474064  0.16632366  0.25058587     0.13880
C831        C  0.33548824  0.19252042  0.25369447    -0.23810
H832        H  0.35238261  0.14650986  0.27075653     0.15170
H833        H  0.27708577  0.13696219  0.22565297     0.15200
C834        C  0.29396768  0.09082580  0.24214112    -0.23760
H835        H  0.35206471  0.19140056  0.26464415     0.05410
H836        H  0.32391522  0.20537201  0.26537486     0.08640
H837        H  0.33858661  0.20111774  0.23338583     0.08640
H838        H  0.29027972  0.08193686  0.26213629     0.08620
H839        H  0.30577503  0.07814304  0.23059815     0.08620
H840        H  0.27764675  0.09211582  0.23066169     0.05390
C841        C  0.50754751  0.05588936  0.28858898    -0.20410
C842        C  0.49531749  0.03272880  0.28990507    -0.06980
C843        C  0.50716403  0.00901008  0.28814435     0.13890
C844        C  0.53104920  0.00904531  0.28657649    -0.20460
C845        C  0.54352215  0.03213561  0.28670638    -0.06980
C846        C  0.53152997  0.05597539  0.28720889     0.13880
C847        C  0.54365775  0.08155254  0.28786689    -0.23810
H848        H  0.49831290  0.07401343  0.28981282     0.15170
H849        H  0.54012505  0.99080029  0.28577209     0.15200
C850        C  0.49473502  0.98358716  0.28741098    -0.23760
H851        H  0.53157062  0.09786384  0.29084037     0.05410
H852        H  0.55242659  0.08492474  0.26828766     0.08640
H853        H  0.55613649  0.08192655  0.30487218     0.08640
H854        H  0.48213026  0.98367164  0.27052900     0.08620
H855        H  0.48583607  0.98012947  0.30689038     0.08620
H856        H  0.50661878  0.96714201  0.28414033     0.05390
C857        C  0.71590791  0.11882128  0.23666967    -0.20410
C858        C  0.71218064  0.11818005  0.26474989    -0.06980
C859        C  0.71981960  0.13888586  0.28106412     0.13890
C860        C  0.73069848  0.15994678  0.26870490    -0.20460
C861        C  0.73387332  0.16090191  0.24048741    -0.06980
C862        C  0.72685327  0.13975183  0.22431530     0.13880
C863        C  0.73146783  0.13861818  0.19419487    -0.23810
H864        H  0.71012622  0.10280312  0.22431112     0.15170
H865        H  0.73632909  0.17602457  0.28106310     0.15200
C866        C  0.71563939  0.13950760  0.31123722    -0.23760
H867        H  0.72625644  0.11983802  0.18531335     0.05410
H868        H  0.75001365  0.14108053  0.19037957     0.08640
H869        H  0.72170660  0.15393802  0.18347870     0.08640
H870        H  0.72514205  0.12362569  0.32131903     0.08620
H871        H  0.69710652  0.13751876  0.31537011     0.08620
H872        H  0.72147391  0.15790424  0.32044371     0.05390
C873        C  0.68663314  0.96530013  0.46841614    -0.20410
C874        C  0.66526610  0.96339995  0.48120913    -0.06980
C875        C  0.64526313  0.96798425  0.46561618     0.13890
C876        C  0.64729503  0.97553171  0.43845625    -0.20460
C877        C  0.66856608  0.97785072  0.42569581    -0.06980
C878        C  0.68857256  0.97231447  0.44085212     0.13880
C879        C  0.71188193  0.97261832  0.42803249    -0.23810
H880        H  0.70194718  0.96119416  0.48007539     0.15170
H881        H  0.63187376  0.97974987  0.42707719     0.15200
C882        C  0.62151286  0.96371581  0.47648099    -0.23760
H883        H  0.72520074  0.96527339  0.44219196     0.05410
H884        H  0.71666616  0.99257796  0.42248426     0.08640
H885        H  0.71200958  0.96015868  0.40969838     0.08640
H886        H  0.61666016  0.97959533  0.49034817     0.08620
H887        H  0.62046413  0.94473955  0.48688058     0.08620
H888        H  0.60856004  0.96362139  0.45995662     0.05390
C889        C  0.69557169  0.80080284  0.65208345    -0.20410
C890        C  0.70816912  0.82253523  0.64404661    -0.06980
C891        C  0.73217399  0.82238957  0.64742286     0.13890
C892        C  0.74284186  0.80039523  0.65836701    -0.20460
C893        C  0.73013998  0.77889885  0.66666305    -0.06980
C894        C  0.70620789  0.77907399  0.66350491     0.13880
C895        C  0.69186796  0.75622060  0.67153315    -0.23810
H896        H  0.67719698  0.80079847  0.64940719     0.15170
H897        H  0.76120676  0.80026082  0.66127229     0.15200
C898        C  0.74657255  0.84564698  0.64101156    -0.23760
H899        H  0.67358991  0.75918989  0.66630483     0.05410
H900        H  0.69296161  0.75305277  0.69378605     0.08640
H901        H  0.69794067  0.73869194  0.66075521     0.08640
H902        H  0.73980825  0.86283619  0.65180971     0.08620
H903        H  0.74671984  0.84924702  0.61884777     0.08620
H904        H  0.76459350  0.84283198  0.64748501     0.05390
C905        C  0.36978858  0.94864653  0.45969847    -0.20410
C906        C  0.35731570  0.96258065  0.47895672    -0.06980
C907        C  0.34363123  0.98356589  0.47053420     0.13890
C908        C  0.34445752  0.99166308  0.44324055    -0.20460
C909        C  0.35854048  0.97896240  0.42437795    -0.06980
C910        C  0.37005007  0.95607629  0.43239032     0.13880
C911        C  0.38268934  0.93890110  0.41277397    -0.23810
H912        H  0.37973081  0.93202026  0.46612859     0.15170
H913        H  0.33528713  0.00891019  0.43710255     0.15200
C914        C  0.32919326  0.99814817  0.49060344    -0.23760
H915        H  0.37642432  0.91879720  0.41483480     0.05410
H916        H  0.40123528  0.93922210  0.41747130     0.08640
H917        H  0.37999486  0.94449673  0.39127930     0.08720
H918        H  0.34018412  0.00639578  0.50679503     0.08620
H919        H  0.31661438  0.98485965  0.49992831     0.08620
H920        H  0.31967339  0.01420649  0.48074239     0.05390
C921        C  0.50447852  0.89215601  0.61471318    -0.20410
C922        C  0.49285268  0.91579946  0.61662015    -0.06980
C923        C  0.50540397  0.93863618  0.62114699     0.13890
C924        C  0.52930051  0.93741082  0.62231215    -0.20460
C925        C  0.54107640  0.91396754  0.61928567    -0.06980
C926        C  0.52845865  0.89091342  0.61578814     0.13880
C927        C  0.53998805  0.86518613  0.61164118    -0.23810
H928        H  0.49475952  0.87468260  0.61134015     0.15170
H929        H  0.53893677  0.95501182  0.62526599     0.15200
C930        C  0.49373944  0.96428357  0.62544157    -0.23760
H931        H  0.52747630  0.84975213  0.60695301     0.05410
H932        H  0.54913926  0.85934301  0.63039125     0.08640
H933        H  0.55212951  0.86635801  0.59441134     0.08640
H934        H  0.48135569  0.96273113  0.64239024     0.08620
H935        H  0.48472180  0.97043626  0.60671496     0.08620
H936        H  0.50613894  0.97967427  0.63067099     0.05390
C937        C  0.32465444  0.82282526  0.67157858    -0.20410
C938        C  0.32463466  0.82644571  0.64337131    -0.06980
C939        C  0.31341733  0.80831704  0.62658733     0.13890
C940        C  0.30253371  0.78705898  0.63853147    -0.20460
C941        C  0.30259892  0.78329380  0.66679658    -0.06980
C942        C  0.31365274  0.80169817  0.68359043     0.13880
C943        C  0.31344711  0.79986417  0.71417622    -0.23810
H944        H  0.33330096  0.83678000  0.68433824     0.15170
H945        H  0.29406238  0.77311188  0.62561304     0.15200
C946        C  0.31361112  0.81054155  0.59606417    -0.23760
H947        H  0.32172508  0.81680352  0.72382292     0.05410
H948        H  0.32296446  0.78244304  0.72091662     0.08640
H949        H  0.29557078  0.79905611  0.72157986     0.08640
H950        H  0.33145686  0.81185672  0.58867520     0.08620
H951        H  0.30383156  0.82781297  0.58955376     0.08620
H952        H  0.30558461  0.79355483  0.58621726     0.05390
loop_ 
_geom_bond_atom_site_label_1 
_geom_bond_atom_site_label_2 
_geom_bond_distance 
_geom_bond_site_symmetry_2 
_ccdc_geom_bond_type 
N1            N2   1.322       .  A
N1            C5   1.349       .  A
N1           Cu9   2.077       .  S
N2            C3   1.341       .  A
N2           Cu8   2.068       .  S
C3            C4   1.380       .  A
C3            H6   1.083       .  S
C4            C5   1.385       .  A
C4          C906   1.473       .  S
C5            H7   1.082       .  S
Cu8          N11   2.068       .  S
Cu9          N19   2.079       .  S
Cu10         N12   2.076       .  S
Cu10         N18   2.077       .  S
N11          N12   1.320       .  A
N11          C15   1.343       .  A
N12          C13   1.348       .  A
C13          C14   1.386       .  A
C13          H16   1.082       .  S
C14          C15   1.383       .  A
C14         C922   1.481       .  S
C15          H17   1.081       .  S
N18          N19   1.324       .  A
N18          C22   1.344       .  A
N19          C20   1.346       .  A
C20          C21   1.384       .  A
C20          H23   1.081       .  S
C21          C22   1.382       .  A
C21         C938   1.480       .  S
C22          H24   1.082       .  S
N25          N26   1.321       .  A
N25          C29   1.348       .  A
N25         Cu33   2.079       .  S
N26          C27   1.340       .  A
N26         Cu32   2.067       .  S
C27          C28   1.385       .  A
C27          H30   1.078       .  S
C28          C29   1.389       .  A
C28         C874   1.489       .  S
C29          H31   1.082       .  S
Cu32         N35   2.069       .  S
Cu33         N43   2.080       .  S
Cu34         N36   2.069       .  S
Cu34         N42   2.070       .  S
N35          N36   1.319       .  A
N35          C39   1.343       .  A
N36          C37   1.347       .  A
C37          C38   1.387       .  A
C37          H40   1.080       .  S
C38          C39   1.385       .  A
C38         C925   1.485       .  S
C39          H41   1.082       .  S
N42          N43   1.323       .  A
N42          C46   1.342       .  A
N43          C44   1.346       .  A
C44          C45   1.387       .  A
C44          H47   1.081       .  S
C45          C46   1.383       .  A
C45         C890   1.483       .  S
C46          H48   1.082       .  S
N49          N50   1.320   1_545  A
N49          C53   1.348       .  A
N49         Cu57   2.076       .  S
N50          C51   1.340       .  A
N50         Cu56   2.070   1_565  S
C51          C52   1.387       .  A
C51          H54   1.082       .  S
C52          C53   1.390   1_565  A
C52         C877   1.489       .  S
C53          H55   1.080       .  S
Cu56         N59   2.071       .  S
Cu57         N67   2.076       .  S
Cu58         N60   2.069       .  S
Cu58         N66   2.070       .  S
N59          N60   1.319       .  A
N59          C63   1.343       .  A
N60          C61   1.346       .  A
C61          C62   1.388       .  A
C61          H64   1.079       .  S
C62          C63   1.386       .  A
C62         C845   1.487       .  S
C63          H65   1.082   1_545  S
N66          N67   1.323       .  A
N66          C70   1.342       .  A
N67          C68   1.346       .  A
C68          C69   1.384       .  A
C68          H71   1.081       .  S
C69          C70   1.381       .  A
C69         C858   1.476       .  S
C70          H72   1.082       .  S
N73          N74   1.321       .  A
N73          C77   1.351       .  A
N73         Cu81   2.085       .  S
N74          C75   1.338   1_545  A
N74         Cu80   2.058       .  S
C75          C76   1.381       .  A
C75          H78   1.082       .  S
C76          C77   1.390   1_565  A
C76         C909   1.483       .  S
C77          H79   1.082       .  S
Cu80         N83   2.058       .  S
Cu81         N91   2.087       .  S
Cu82         N84   2.075       .  S
Cu82         N90   2.076       .  S
N83          N84   1.319       .  A
N83          C87   1.341       .  A
N84          C85   1.348       .  A
C85          C86   1.387       .  A
C85          H88   1.082       .  S
C86          C87   1.382       .  A
C86         C842   1.478       .  S
C87          H89   1.081       .  S
N90          N91   1.325       .  A
N90          C94   1.343       .  A
N91          C92   1.347       .  A
C92          C93   1.384       .  A
C92          H95   1.082       .  S
C93          C94   1.380       .  A
C93         C826   1.476       .  S
C94          H96   1.082       .  S
N97          N98   1.322       .  A
N97         C101   1.349       .  A
N97        Cu105   2.083       .  S
N98          C99   1.340       .  A
N98        Cu104   2.069       .  S
C99         C100   1.384       .  A
C99         H102   1.079       .  S
C100        C101   1.389       .  A
C100        C778   1.487       .  S
C101        H103   1.082       .  S
Cu104       N107   2.071       .  S
Cu105       N115   2.084       .  S
Cu106       N108   2.065       .  S
Cu106       N114   2.066       .  S
N107        N108   1.320       .  A
N107        C111   1.344       .  A
N108        C109   1.346       .  A
C109        C110   1.382       .  A
C109        H112   1.081       .  S
C110        C111   1.384       .  A
C110        C794   1.477       .  S
C111        H113   1.081       .  S
N114        N115   1.323       .  A
N114        C118   1.341       .  A
N115        C116   1.347       .  A
C116        C117   1.388       .  A
C116        H119   1.082       .  S
C117        C118   1.383       .  A
C117        C810   1.484       .  S
C118        H120   1.082       .  S
N121        N122   1.321       .  A
N121        C125   1.348       .  A
N121       Cu129   2.079       .  S
N122        C123   1.340       .  A
N122       Cu128   2.066       .  S
C123        C124   1.383       .  A
C123        H126   1.083       .  S
C124        C125   1.389       .  A
C124        C746   1.485       .  S
C125        H127   1.080       .  S
Cu128       N131   2.066       .  S
Cu129       N139   2.079       .  S
Cu130       N132   2.072       .  S
Cu130       N138   2.072       .  S
N131        N132   1.320       .  A
N131        C135   1.342       .  A
N132        C133   1.347       .  A
C133        C134   1.388       .  A
C133        H136   1.080       .  S
C134        C135   1.384       .  A
C134        C797   1.483       .  S
C135        H137   1.082       .  S
N138        N139   1.323       .  A
N138        C142   1.342       .  A
N139        C140   1.346       .  A
C140        C141   1.386       .  A
C140        H143   1.081       .  S
C141        C142   1.382       .  A
C141        C765   1.482       .  S
C142        H144   1.082       .  S
N145        N146   1.320       .  A
N145        C149   1.349       .  A
N145       Cu153   2.086       .  S
N146        C147   1.339       .  A
N146       Cu152   2.068       .  S
C147        C148   1.388       .  A
C147        H150   1.082       .  S
C148        C149   1.393       .  A
C148        C781   1.495       .  S
C149        H151   1.079       .  S
Cu152       N155   2.069       .  S
Cu153       N163   2.087       .  S
Cu154       N156   2.067       .  S
Cu154       N162   2.068       .  S
N155        N156   1.320       .  A
N155        C159   1.344       .  A
N156        C157   1.347       .  A
C157        C158   1.383       .  A
C157        H160   1.082       .  S
C158        C159   1.382       .  A
C158        C717   1.474       .  S
C159        H161   1.082       .  S
N162        N163   1.324       .  A
N162        C166   1.342       .  A
N163        C164   1.347       .  A
C164        C165   1.385       .  A
C164        H167   1.082       .  S
C165        C166   1.380       .  A
C165        C730   1.478       .  S
C166        H168   1.081       .  S
N169        N170   1.322       .  A
N169        C173   1.348       .  A
N169       Cu177   2.078       .  S
N170        C171   1.342       .  A
N170       Cu176   2.067       .  S
C171        C172   1.379       .  A
C171        H174   1.082       .  S
C172        C173   1.384       .  A
C172        C749   1.472       .  S
C173        H175   1.082       .  S
Cu176       N179   2.067       .  S
Cu177       N187   2.079       .  S
Cu178       N180   2.072       .  S
Cu178       N186   2.073       .  S
N179        N180   1.321       .  A
N179        C183   1.343       .  A
N180        C181   1.348       .  A
C181        C182   1.383       .  A
C181        H184   1.082       .  S
C182        C183   1.381       .  A
C182        C714   1.474       .  S
C183        H185   1.082       .  S
N186        N187   1.323       .  A
N186        C190   1.343       .  A
N187        C188   1.346       .  A
C188        C189   1.386       .  A
C188        H191   1.083       .  S
C189        C190   1.384       .  A
C189        C698   1.483       .  S
C190        H192   1.082       .  S
N193        N194   1.322       .  A
N193        C197   1.348       .  A
N193       Cu201   2.081       .  S
N194        C195   1.342       .  A
N194       Cu200   2.068       .  S
C195        C196   1.381       .  A
C195        H198   1.082       .  S
C196        C197   1.386       .  A
C196        C650   1.478       .  S
C197        H199   1.082       .  S
Cu200       N203   2.068       .  S
Cu201       N211   2.082       .  S
Cu202       N204   2.069       .  S
Cu202       N210   2.070       .  S
N203        N204   1.321       .  A
N203        C207   1.342       .  A
N204        C205   1.347       .  A
C205        C206   1.382       .  A
C205        H208   1.082       .  S
C206        C207   1.381       .  A
C206        C666   1.473       .  S
C207        H209   1.082       .  S
N210        N211   1.323       .  A
N210        C214   1.342       .  A
N211        C212   1.346       .  A
C212        C213   1.385       .  A
C212        H215   1.083       .  S
C213        C214   1.382       .  A
C213        C682   1.479       .  S
C214        H216   1.082       .  S
N217        N218   1.321       .  A
N217        C221   1.348       .  A
N217       Cu225   2.079       .  S
N218        C219   1.340       .  A
N218       Cu224   2.060       .  S
C219        C220   1.381       .  A
C219        H222   1.082       .  S
C220        C221   1.387       .  A
C220        C618   1.478       .  S
C221        H223   1.082       .  S
Cu224       N227   2.060       .  S
Cu225       N235   2.081       .  S
Cu226       N228   2.074       .  S
Cu226       N234   2.075       .  S
N227        N228   1.320       .  A
N227        C231   1.341       .  A
N228        C229   1.348       .  A
C229        C230   1.385       .  A
C229        H232   1.082       .  S
C230        C231   1.380       .  A
C230        C669   1.474       .  S
C231        H233   1.082       .  S
N234        N235   1.325       .  A
N234        C238   1.343       .  A
N235        C236   1.346       .  A
C236        C237   1.383       .  A
C236        H239   1.082       .  S
C237        C238   1.381       .  A
C237        C634   1.475       .  S
C238        H240   1.082       .  S
N241        N242   1.323   1_545  A
N241        C245   1.347       .  A
N241       Cu249   2.076       .  S
N242        C243   1.343       .  A
N242       Cu248   2.074   1_565  S
C243        C244   1.381       .  A
C243        H246   1.082       .  S
C244        C245   1.383   1_565  A
C244        C653   1.473   1_554  S
C245        H247   1.082       .  S
Cu248       N251   2.074       .  S
Cu249       N259   2.076       .  S
Cu250       N252   2.069       .  S
Cu250       N258   2.069       .  S
N251        N252   1.321       .  A
N251        C255   1.344       .  A
N252        C253   1.346       .  A
C253        C254   1.384       .  A
C253        H256   1.081       .  S
C254        C255   1.383       .  A
C254        C586   1.479       .  S
C255        H257   1.082       .  S
N258        N259   1.322       .  A
N258        C262   1.342       .  A
N259        C260   1.346       .  A
C260        C261   1.387       .  A
C260        H263   1.080       .  S
C261        C262   1.383       .  A
C261        C602   1.484       .  S
C262        H264   1.082       .  S
N265        N266   1.322       .  A
N265        C269   1.347       .  A
N265       Cu273   2.073       .  S
N266        C267   1.342   1_545  A
N266       Cu272   2.071       .  S
C267        C268   1.380       .  A
C267        H270   1.082       .  S
C268        C269   1.382   1_565  A
C268        C621   1.470   1_554  S
C269        H271   1.082       .  S
Cu272       N275   2.071       .  S
Cu273       N283   2.074       .  S
Cu274       N276   2.071       .  S
Cu274       N282   2.071       .  S
N275        N276   1.321       .  A
N275        C279   1.343       .  A
N276        C277   1.347       .  A
C277        C278   1.384       .  A
C277        H280   1.082       .  S
C278        C279   1.382       .  A
C278        C589   1.477       .  S
C279        H281   1.082       .  S
N282        N283   1.323       .  A
N282        C286   1.343       .  A
N283        C284   1.345       .  A
C284        C285   1.382       .  A
C284        H287   1.083       .  S
C285        C286   1.381       .  A
C285        C573   1.473       .  S
C286        H288   1.082       .  S
N289        N290   1.321       .  A
N289        C293   1.349       .  A
N289       Cu297   2.084       .  S
N290        C291   1.340       .  A
N290       Cu296   2.069       .  S
C291        C292   1.386       .  A
C291        H294   1.082       .  S
C292        C293   1.391       .  A
C292        C522   1.489       .  S
C293        H295   1.080       .  S
Cu296       N299   2.070       .  S
Cu297       N307   2.084       .  S
Cu298       N300   2.065       .  S
Cu298       N306   2.065       .  S
N299        N300   1.320       .  A
N299        C303   1.344       .  A
N300        C301   1.346       .  A
C301        C302   1.384       .  A
C301        H304   1.082       .  S
C302        C303   1.385       .  A
C302        C538   1.480       .  S
C303        H305   1.081       .  S
N306        N307   1.323       .  A
N306        C310   1.341       .  A
N307        C308   1.346       .  A
C308        C309   1.387       .  A
C308        H311   1.083       .  S
C309        C310   1.383       .  A
C309        C554   1.483       .  S
C310        H312   1.080       .  S
N313        N314   1.322       .  A
N313        C317   1.347       .  A
N313       Cu321   2.074       .  S
N314        C315   1.343       .  A
N314       Cu320   2.070       .  S
C315        C316   1.381       .  A
C315        H318   1.083       .  S
C316        C317   1.384       .  A
C316        C490   1.475       .  S
C317        H319   1.082       .  S
Cu320       N323   2.070       .  S
Cu321       N331   2.075       .  S
Cu322       N324   2.074       .  S
Cu322       N330   2.074       .  S
N323        N324   1.321       .  A
N323        C327   1.342       .  A
N324        C325   1.347       .  A
C325        C326   1.386       .  A
C325        H328   1.081       .  S
C326        C327   1.383       .  A
C326        C541   1.481       .  S
C327        H329   1.082       .  S
N330        N331   1.323       .  A
N330        C334   1.343       .  A
N331        C332   1.345       .  A
C332        C333   1.386       .  A
C332        H335   1.080       .  S
C333        C334   1.384       .  A
C333        C506   1.483       .  S
C334        H336   1.082       .  S
N337        N338   1.321       .  A
N337        C341   1.349       .  A
N337       Cu345   2.086       .  S
N338        C339   1.340       .  A
N338       Cu344   2.067       .  S
C339        C340   1.385       .  A
C339        H342   1.077       .  S
C340        C341   1.390       .  A
C340        C525   1.491   1_554  S
C341        H343   1.082       .  S
Cu344       N347   2.069       .  S
Cu345       N355   2.087       .  S
Cu346       N348   2.065       .  S
Cu346       N354   2.066       .  S
N347        N348   1.318       .  A
N347        C351   1.343       .  A
N348        C349   1.346       .  A
C349        C350   1.389       .  A
C349        H352   1.078       .  S
C350        C351   1.388       .  A
C350        C458   1.489       .  S
C351        H353   1.082       .  S
N354        N355   1.323       .  A
N354        C358   1.341       .  A
N355        C356   1.347       .  A
C356        C357   1.388       .  A
C356        H359   1.082       .  S
C357        C358   1.383       .  A
C357        C474   1.484       .  S
C358        H360   1.082       .  S
N361        N362   1.322       .  A
N361        C365   1.348       .  A
N361       Cu369   2.076       .  S
N362        C363   1.342       .  A
N362       Cu368   2.067       .  S
C363        C364   1.379       .  A
C363        H366   1.082       .  S
C364        C365   1.385       .  A
C364        C493   1.474   1_554  S
C365        H367   1.082       .  S
Cu368       N371   2.068       .  S
Cu369       N379   2.077       .  S
Cu370       N372   2.071       .  S
Cu370       N378   2.072       .  S
N371        N372   1.320       .  A
N371        C375   1.343       .  A
N372        C373   1.346       .  A
C373        C374   1.386       .  A
C373        H376   1.082       .  S
C374        C375   1.384       .  A
C374        C461   1.481       .  S
C375        H377   1.081       .  S
N378        N379   1.323       .  A
N378        C382   1.343       .  A
N379        C380   1.345       .  A
C380        C381   1.384       .  A
C380        H383   1.083       .  S
C381        C382   1.382       .  A
C381        C445   1.478       .  S
C382        H384   1.082       .  S
O385       Cu393   2.011       .  S
O385        C395   1.279       .  A
O386       Cu393   2.010       .  S
O386        C396   1.276       .  A
O387       Cu393   1.999       .  S
O387        C397   1.277       .  A
O388       Cu393   2.009       .  S
O388        C398   1.277       .  A
O389       Cu394   2.008       .  S
O389        C398   1.277       .  A
O390       Cu394   2.011       .  S
O390        C397   1.277       .  A
O391       Cu394   2.005       .  S
O391        C396   1.279       .  A
O392       Cu394   2.002       .  S
O392        C395   1.276       .  A
Cu393      Cu394   2.368       .  S
C395        C941   1.486       .  S
C396        C509   1.489       .  S
C397        C637   1.478       .  S
C398        C733   1.473       .  S
O399       Cu407   2.004       .  S
O399        C409   1.277       .  A
O400       Cu407   2.004       .  S
O400        C410   1.277       .  A
O401       Cu407   2.001       .  S
O401        C411   1.278       .  A
O402       Cu407   2.010       .  S
O402        C412   1.277       .  A
O403       Cu408   2.002       .  S
O403        C412   1.278       .  A
O404       Cu408   2.011       .  S
O404        C411   1.277       .  A
O405       Cu408   2.003       .  S
O405        C410   1.277       .  A
O406       Cu408   2.003       .  S
O406        C409   1.277       .  A
Cu407      Cu408   2.371       .  S
C409        C557   1.475       .  S
C410        C893   1.474       .  S
C411        C701   1.491       .  S
C412        C685   1.481       .  S
O413       Cu421   2.002       .  S
O413        C423   1.276       .  A
O414       Cu421   2.003       .  S
O414        C424   1.278       .  A
O415       Cu421   2.002       .  S
O415        C425   1.277       .  A
O416       Cu421   2.007       .  S
O416        C426   1.277       .  A
O417       Cu422   2.003       .  S
O417        C426   1.279       .  A
O418       Cu422   2.005       .  S
O418        C425   1.277       .  A
O419       Cu422   2.006       .  S
O419        C424   1.277       .  A
O420       Cu422   2.008       .  S
O420        C423   1.277       .  A
Cu421      Cu422   2.371       .  S
C423        C829   1.467       .  S
C424        C442   1.482       .  S
C425        C570   1.475       .  S
C426        C813   1.492       .  S
O427       Cu435   2.002       .  S
O427        C437   1.276       .  A
O428       Cu435   1.997       .  S
O428        C438   1.276       .  A
O429       Cu435   2.005       .  S
O429        C439   1.277       .  A
O430       Cu435   2.005       .  S
O430        C440   1.278       .  A
O431       Cu436   2.004       .  S
O431        C440   1.277       .  A
O432       Cu436   2.004       .  S
O432        C439   1.278       .  A
O433       Cu436   2.011       .  S
O433        C438   1.278       .  A
O434       Cu436   2.009       .  S
O434        C437   1.279       .  A
Cu435      Cu436   2.366       .  S
C437        C477   1.491       .  S
C438        C861   1.478       .  S
C439        C762   1.486       .  S
C440        C605   1.489       .  S
C441        C442   1.405       .  A
C441        C446   1.401       .  A
C441        H448   1.084       .  S
C442        C443   1.416       .  A
C443        C444   1.405       .  A
C443        C450   1.507       .  S
C444        C445   1.403       .  A
C444        H449   1.084       .  S
C445        C446   1.413       .  A
C446        C447   1.508       .  S
C447        H451   1.111       .  S
C447        H452   1.107       .  S
C447        H453   1.110       .  S
C450        H454   1.109       .  S
C450        H455   1.109       .  S
C450        H456   1.111       .  S
C457        C458   1.405   1_455  A
C457        C462   1.402       .  A
C457        H464   1.084   1_455  S
C458        C459   1.420   1_655  A
C459        C460   1.407       .  A
C459        C466   1.507   1_455  S
C460        C461   1.402       .  A
C460        H465   1.084       .  S
C461        C462   1.413       .  A
C462        C463   1.508       .  S
C463        H467   1.111       .  S
C463        H468   1.107       .  S
C463        H469   1.110       .  S
C466        H470   1.110       .  S
C466        H471   1.108       .  S
C466        H472   1.111   1_655  S
C473        C474   1.403       .  A
C473        C478   1.406       .  A
C473        H480   1.084       .  S
C474        C475   1.416       .  A
C475        C476   1.401       .  A
C475        C482   1.509       .  S
C476        C477   1.406       .  A
C476        H481   1.084       .  S
C477        C478   1.421       .  A
C478        C479   1.508       .  S
C479        H483   1.111       .  S
C479        H484   1.110       .  S
C479        H485   1.110       .  S
C482        H486   1.106       .  S
C482        H487   1.110       .  S
C482        H488   1.111       .  S
C489        C490   1.402       .  A
C489        C494   1.404       .  A
C489        H496   1.084       .  S
C490        C491   1.413       .  A
C491        C492   1.404       .  A
C491        C498   1.507       .  S
C492        C493   1.402       .  A
C492        H497   1.084       .  S
C493        C494   1.412       .  A
C494        C495   1.507       .  S
C495        H499   1.111       .  S
C495        H500   1.110       .  S
C495        H501   1.110       .  S
C498        H502   1.110       .  S
C498        H503   1.109       .  S
C498        H504   1.111       .  S
C505        C506   1.401       .  A
C505        C510   1.403       .  A
C505        H512   1.085       .  S
C506        C507   1.414       .  A
C507        C508   1.403       .  A
C507        C514   1.508       .  S
C508        C509   1.407       .  A
C508        H513   1.084       .  S
C509        C510   1.424       .  A
C510        C511   1.511       .  S
C511        H515   1.111       .  S
C511        H516   1.111       .  S
C511        H517   1.099       .  S
C514        H518   1.107       .  S
C514        H519   1.110       .  S
C514        H520   1.111       .  S
C521        C522   1.402       .  A
C521        C526   1.398       .  A
C521        H528   1.084       .  S
C522        C523   1.415       .  A
C523        C524   1.411       .  A
C523        C530   1.506       .  S
C524        C525   1.408       .  A
C524        H529   1.084       .  S
C525        C526   1.419       .  A
C526        C527   1.509       .  S
C527        H531   1.111       .  S
C527        H532   1.110       .  S
C527        H533   1.107       .  S
C530        H534   1.110       .  S
C530        H535   1.107       .  S
C530        H536   1.111       .  S
C537        C538   1.403   1_455  A
C537        C542   1.407       .  A
C537        H544   1.084   1_455  S
C538        C539   1.415   1_655  A
C539        C540   1.402       .  A
C539        C546   1.508   1_455  S
C540        C541   1.403       .  A
C540        H545   1.085       .  S
C541        C542   1.414       .  A
C542        C543   1.506       .  S
C543        H547   1.111       .  S
C543        H548   1.110       .  S
C543        H549   1.108       .  S
C546        H550   1.107       .  S
C546        H551   1.110       .  S
C546        H552   1.111   1_655  S
C553        C554   1.404       .  A
C553        C558   1.404       .  A
C553        H560   1.084       .  S
C554        C555   1.419       .  A
C555        C556   1.403       .  A
C555        C562   1.508       .  S
C556        C557   1.399       .  A
C556        H561   1.084       .  S
C557        C558   1.414       .  A
C558        C559   1.509       .  S
C559        H563   1.111       .  S
C559        H564   1.111       .  S
C559        H565   1.109       .  S
C562        H566   1.107       .  S
C562        H567   1.110       .  S
C562        H568   1.111       .  S
C569        C570   1.404       .  A
C569        C574   1.401       .  A
C569        H576   1.085       .  S
C570        C571   1.414       .  A
C571        C572   1.404       .  A
C571        C578   1.507       .  S
C572        C573   1.402       .  A
C572        H577   1.084       .  S
C573        C574   1.411       .  A
C574        C575   1.507       .  S
C575        H579   1.111       .  S
C575        H580   1.110       .  S
C575        H581   1.109       .  S
C578        H582   1.109       .  S
C578        H583   1.110       .  S
C578        H584   1.111       .  S
C585        C586   1.402   1_455  A
C585        C590   1.402       .  A
C585        H592   1.084   1_445  S
C586        C587   1.415   1_655  A
C587        C588   1.406       .  A
C587        C594   1.507   1_455  S
C588        C589   1.403       .  A
C588        H593   1.084       .  S
C589        C590   1.412       .  A
C590        C591   1.507   1_545  S
C591        H595   1.111       .  S
C591        H596   1.111       .  S
C591        H597   1.108       .  S
C594        H598   1.108       .  S
C594        H599   1.111       .  S
C594        H600   1.111   1_655  S
C601        C602   1.403       .  A
C601        C606   1.403       .  A
C601        H608   1.084       .  S
C602        C603   1.415       .  A
C603        C604   1.404       .  A
C603        C610   1.507       .  S
C604        C605   1.406       .  A
C604        H609   1.084       .  S
C605        C606   1.420       .  A
C606        C607   1.509       .  S
C607        H611   1.111       .  S
C607        H612   1.111       .  S
C607        H613   1.110       .  S
C610        H614   1.108       .  S
C610        H615   1.110       .  S
C610        H616   1.111       .  S
C617        C618   1.404       .  A
C617        C622   1.405       .  A
C617        H624   1.084       .  S
C618        C619   1.416       .  A
C619        C620   1.402   1_565  A
C619        C626   1.508   1_565  S
C620        C621   1.399   1_545  A
C620        H625   1.084       .  S
C621        C622   1.409       .  A
C622        C623   1.505       .  S
C623        H627   1.111       .  S
C623        H628   1.110   1_556  S
C623        H629   1.111   1_556  S
C626        H630   1.107       .  S
C626        H631   1.110       .  S
C626        H632   1.111       .  S
C633        C634   1.403       .  A
C633        C638   1.405       .  A
C633        H640   1.084       .  S
C634        C635   1.411       .  A
C635        C636   1.401       .  A
C635        C642   1.508       .  S
C636        C637   1.404       .  A
C636        H641   1.085       .  S
C637        C638   1.414       .  A
C638        C639   1.507       .  S
C639        H643   1.111       .  S
C639        H644   1.109       .  S
C639        H645   1.111       .  S
C642        H646   1.110       .  S
C642        H647   1.108       .  S
C642        H648   1.111       .  S
C649        C650   1.404       .  A
C649        C654   1.405       .  A
C649        H656   1.084       .  S
C650        C651   1.414       .  A
C651        C652   1.404       .  A
C651        C658   1.507   1_565  S
C652        C653   1.401       .  A
C652        H657   1.084   1_565  S
C653        C654   1.410       .  A
C654        C655   1.506       .  S
C655        H659   1.111       .  S
C655        H660   1.111   1_556  S
C655        H661   1.110   1_556  S
C658        H662   1.110       .  S
C658        H663   1.108       .  S
C658        H664   1.111       .  S
C665        C666   1.403   1_455  A
C665        C670   1.407       .  A
C665        H672   1.084   1_455  S
C666        C667   1.412   1_655  A
C667        C668   1.400       .  A
C667        C674   1.507   1_455  S
C668        C669   1.401       .  A
C668        H673   1.084       .  S
C669        C670   1.412       .  A
C670        C671   1.506       .  S
C671        H675   1.111       .  S
C671        H676   1.110       .  S
C671        H677   1.110       .  S
C674        H678   1.111       .  S
C674        H679   1.109       .  S
C674        H680   1.111   1_655  S
C681        C682   1.404       .  A
C681        C686   1.405       .  A
C681        H688   1.084       .  S
C682        C683   1.413       .  A
C683        C684   1.402       .  A
C683        C690   1.508       .  S
C684        C685   1.404       .  A
C684        H689   1.085       .  S
C685        C686   1.416       .  A
C686        C687   1.507       .  S
C687        H691   1.111       .  S
C687        H692   1.110       .  S
C687        H693   1.110       .  S
C690        H694   1.107       .  S
C690        H695   1.110       .  S
C690        H696   1.111       .  S
C697        C698   1.404       .  A
C697        C702   1.406       .  A
C697        H704   1.084       .  S
C698        C699   1.415       .  A
C699        C700   1.400       .  A
C699        C706   1.509       .  S
C700        C701   1.407       .  A
C700        H705   1.085       .  S
C701        C702   1.420       .  A
C702        C703   1.508       .  S
C703        H707   1.111       .  S
C703        H708   1.110       .  S
C703        H709   1.110       .  S
C706        H710   1.106       .  S
C706        H711   1.110       .  S
C706        H712   1.111       .  S
C713        C714   1.403       .  A
C713        C718   1.406       .  A
C713        H720   1.084       .  S
C714        C715   1.412       .  A
C715        C716   1.402       .  A
C715        C722   1.507       .  S
C716        C717   1.401       .  A
C716        H721   1.084       .  S
C717        C718   1.411       .  A
C718        C719   1.506       .  S
C719        H723   1.111       .  S
C719        H724   1.110       .  S
C719        H725   1.110       .  S
C722        H726   1.109       .  S
C722        H727   1.111       .  S
C722        H728   1.111       .  S
C729        C730   1.402       .  A
C729        C734   1.404       .  A
C729        H736   1.084       .  S
C730        C731   1.416       .  A
C731        C732   1.404       .  A
C731        C738   1.508       .  S
C732        C733   1.400       .  A
C732        H737   1.084       .  S
C733        C734   1.413       .  A
C734        C735   1.505       .  S
C735        H739   1.111       .  S
C735        H740   1.109       .  S
C735        H741   1.111       .  S
C738        H742   1.111       .  S
C738        H743   1.107       .  S
C738        H744   1.111       .  S
C745        C746   1.405       .  A
C745        C750   1.401       .  A
C745        H752   1.084       .  S
C746        C747   1.419       .  A
C747        C748   1.407       .  A
C747        C754   1.506       .  S
C748        C749   1.400       .  A
C748        H753   1.084       .  S
C749        C750   1.409       .  A
C750        C751   1.507       .  S
C751        H755   1.111       .  S
C751        H756   1.110       .  S
C751        H757   1.110       .  S
C754        H758   1.108       .  S
C754        H759   1.110       .  S
C754        H760   1.111       .  S
C761        C762   1.406       .  A
C761        C766   1.404       .  A
C761        H768   1.084       .  S
C762        C763   1.419       .  A
C763        C764   1.403       .  A
C763        C770   1.509       .  S
C764        C765   1.402       .  A
C764        H769   1.084       .  S
C765        C766   1.415       .  A
C766        C767   1.507       .  S
C767        H771   1.111       .  S
C767        H772   1.110       .  S
C767        H773   1.107       .  S
C770        H774   1.110       .  S
C770        H775   1.111       .  S
C770        H776   1.111       .  S
C777        C778   1.405       .  A
C777        C782   1.411       .  A
C777        H784   1.084       .  S
C778        C779   1.416       .  A
C779        C780   1.398       .  A
C779        C786   1.510       .  S
C780        C781   1.405       .  A
C780        H785   1.083       .  S
C781        C782   1.419       .  A
C782        C783   1.506       .  S
C783        H787   1.111       .  S
C783        H788   1.107       .  S
C783        H789   1.110       .  S
C786        H790   1.106       .  S
C786        H791   1.110       .  S
C786        H792   1.111       .  S
C793        C794   1.402       .  A
C793        C798   1.407       .  A
C793        H800   1.084       .  S
C794        C795   1.412       .  A
C795        C796   1.401       .  A
C795        C802   1.508       .  S
C796        C797   1.404       .  A
C796        H801   1.084       .  S
C797        C798   1.416       .  A
C798        C799   1.506       .  S
C799        H803   1.111       .  S
C799        H804   1.108       .  S
C799        H805   1.110       .  S
C802        H806   1.110       .  S
C802        H807   1.108       .  S
C802        H808   1.111       .  S
C809        C810   1.403       .  A
C809        C814   1.406       .  A
C809        H816   1.084       .  S
C810        C811   1.416       .  A
C811        C812   1.400       .  A
C811        C818   1.509       .  S
C812        C813   1.407       .  A
C812        H817   1.084       .  S
C813        C814   1.421       .  A
C814        C815   1.508       .  S
C815        H819   1.111       .  S
C815        H820   1.110       .  S
C815        H821   1.110       .  S
C818        H822   1.110       .  S
C818        H823   1.106       .  S
C818        H824   1.111       .  S
C825        C826   1.405       .  A
C825        C830   1.402       .  A
C825        H832   1.085       .  S
C826        C827   1.413       .  A
C827        C828   1.404       .  A
C827        C834   1.507       .  S
C828        C829   1.402       .  A
C828        H833   1.085       .  S
C829        C830   1.408       .  A
C830        C831   1.506       .  S
C831        H835   1.111       .  S
C831        H836   1.111       .  S
C831        H837   1.110       .  S
C834        H838   1.109       .  S
C834        H839   1.111       .  S
C834        H840   1.111       .  S
C841        C842   1.402       .  A
C841        C846   1.407       .  A
C841        H848   1.084       .  S
C842        C843   1.412       .  A
C843        C844   1.402       .  A
C843        C850   1.508   1_545  S
C844        C845   1.404       .  A
C844        H849   1.084   1_545  S
C845        C846   1.419       .  A
C846        C847   1.506       .  S
C847        H851   1.111       .  S
C847        H852   1.108       .  S
C847        H853   1.110       .  S
C850        H854   1.110       .  S
C850        H855   1.108       .  S
C850        H856   1.111       .  S
C857        C858   1.401       .  A
C857        C862   1.401       .  A
C857        H864   1.084       .  S
C858        C859   1.414       .  A
C859        C860   1.405       .  A
C859        C866   1.507       .  S
C860        C861   1.403       .  A
C860        H865   1.084       .  S
C861        C862   1.417       .  A
C862        C863   1.509       .  S
C863        H867   1.111       .  S
C863        H868   1.111       .  S
C863        H869   1.109       .  S
C866        H870   1.108       .  S
C866        H871   1.111       .  S
C866        H872   1.111       .  S
C873        C874   1.407       .  A
C873        C878   1.410       .  A
C873        H880   1.084       .  S
C874        C875   1.419       .  A
C875        C876   1.398       .  A
C875        C882   1.509       .  S
C876        C877   1.403       .  A
C876        H881   1.083       .  S
C877        C878   1.416       .  A
C878        C879   1.506       .  S
C879        H883   1.111       .  S
C879        H884   1.107       .  S
C879        H885   1.110       .  S
C882        H886   1.107       .  S
C882        H887   1.110       .  S
C882        H888   1.111       .  S
C889        C890   1.406       .  A
C889        C894   1.401       .  A
C889        H896   1.084       .  S
C890        C891   1.416       .  A
C891        C892   1.404       .  A
C891        C898   1.507       .  S
C892        C893   1.403       .  A
C892        H897   1.085       .  S
C893        C894   1.410       .  A
C894        C895   1.508       .  S
C895        H899   1.111       .  S
C895        H900   1.109       .  S
C895        H901   1.110       .  S
C898        H902   1.110       .  S
C898        H903   1.107       .  S
C898        H904   1.111       .  S
C905        C906   1.399       .  A
C905        C910   1.398       .  A
C905        H912   1.085       .  S
C906        C907   1.410       .  A
C907        C908   1.408       .  A
C907        C914   1.505       .  S
C908        C909   1.407       .  A
C908        H913   1.083   1_565  S
C909        C910   1.417       .  A
C910        C911   1.508       .  S
C911        H915   1.110       .  S
C911        H916   1.111       .  S
C911        H917   1.108       .  S
C914        H918   1.110   1_565  S
C914        H919   1.110       .  S
C914        H920   1.111   1_565  S
C921        C922   1.403       .  A
C921        C926   1.407       .  A
C921        H928   1.084       .  S
C922        C923   1.413       .  A
C923        C924   1.402       .  A
C923        C930   1.508       .  S
C924        C925   1.403       .  A
C924        H929   1.084       .  S
C925        C926   1.418       .  A
C926        C927   1.507       .  S
C927        H931   1.111       .  S
C927        H932   1.108       .  S
C927        H933   1.110       .  S
C930        H934   1.110       .  S
C930        H935   1.107       .  S
C930        H936   1.111       .  S
C937        C938   1.401       .  A
C937        C942   1.403       .  A
C937        H944   1.084       .  S
C938        C939   1.414       .  A
C939        C940   1.404       .  A
C939        C946   1.507       .  S
C940        C941   1.405       .  A
C940        H945   1.084       .  S
C941        C942   1.420       .  A
C942        C943   1.509       .  S
C943        H947   1.111       .  S
C943        H948   1.109       .  S
C943        H949   1.111       .  S
C946        H950   1.110       .  S
C946        H951   1.108       .  S
C946        H952   1.111       .  S
