geometry optimzed in LAMMPS
_audit_creation_date              2020-12-01 
_audit_creation_method            'lammps2cif' 
_symmetry_space_group_name_H-M    'P1' 
_symmetry_Int_Tables_number       1 
_symmetry_cell_setting            triclinic 
loop_ 
_symmetry_equiv_pos_as_xyz 
  x,y,z 
_cell_length_a                    46.30940625 
_cell_length_b                    39.855425627669824 
_cell_length_c                    40.410858019246106 
_cell_angle_alpha                 90.19211222278908 
_cell_angle_beta                  90.1440363719951 
_cell_angle_gamma                 90.0781538099644 
loop_ 
_atom_site_label 
_atom_site_type_symbol 
_atom_site_fract_x 
_atom_site_fract_y 
_atom_site_fract_z 
_atom_site_charge 
N1          N  0.36531845  0.94268536  0.56241540    -0.26500
N2          N  0.38929714  0.96075592  0.56226410    -0.34400
C3          C  0.39192209  0.97596511  0.53284286     0.01800
C4          C  0.36842044  0.96758200  0.51341252     0.07900
C5          C  0.35197302  0.94629681  0.53288111    -0.05200
H6          H  0.41103285  0.98935983  0.52493054     0.08500
H7          H  0.33345986  0.93175095  0.52492597     0.09700
Cu8        Cu  0.42182534  0.95738738  0.59728457     0.44200
Cu9        Cu  0.35599649  0.90818662  0.59991550     0.42000
Cu10       Cu  0.41775809  0.89018949  0.65462359     0.43900
N11         N  0.45710315  0.94131637  0.62441766    -0.33900
N12         N  0.45603674  0.91565962  0.64497751    -0.28100
C13         C  0.48315716  0.90748318  0.65403902    -0.04200
C14         C  0.50214032  0.92903722  0.63825965     0.08000
C15         C  0.48479019  0.95026203  0.61988297     0.01800
H16         H  0.48870890  0.88601218  0.66905360     0.09400
H17         H  0.49182953  0.96896882  0.60232322     0.08500
N18         N  0.37792075  0.86611215  0.65728205    -0.35300
N19         N  0.35564390  0.87212830  0.63757231    -0.27500
C20         C  0.33410007  0.85071833  0.64528081    -0.02800
C21         C  0.34330610  0.83034641  0.67107824     0.05800
C22         C  0.37106728  0.84101791  0.67802408     0.03900
H23         H  0.31343023  0.84995695  0.63281646     0.09000
H24         H  0.38554304  0.83075882  0.69644661     0.07900
N25         N  0.66325746  0.92430943  0.54321241    -0.26500
N26         N  0.64152490  0.94549096  0.54649397    -0.34400
C27         C  0.63896423  0.96357473  0.51871613     0.01800
C28         C  0.66022326  0.95366478  0.49689936     0.07900
C29         C  0.67515639  0.92851554  0.51310835    -0.05200
H30         H  0.62101742  0.98005134  0.51337165     0.08500
H31         H  0.69132390  0.91212648  0.50252894     0.09700
Cu32       Cu  0.61143058  0.94322573  0.58404498     0.44200
Cu33       Cu  0.67103512  0.88628262  0.57705130     0.42000
Cu34       Cu  0.61327036  0.87206394  0.63801170     0.43900
N35         N  0.57790840  0.93096738  0.61538961    -0.33900
N36         N  0.57788660  0.90426737  0.63468864    -0.28100
C37         C  0.55129083  0.90056208  0.64771409    -0.04200
C38         C  0.53382431  0.92608755  0.63577780     0.08000
C39         C  0.55154092  0.94494381  0.61556510     0.01800
H40         H  0.54468123  0.87960795  0.66285430     0.09400
H41         H  0.54522378  0.96578110  0.60008156     0.08500
N42         N  0.65140990  0.84432483  0.63540648    -0.35300
N43         N  0.67202527  0.84951657  0.61334947    -0.27500
C44         C  0.69356935  0.82761630  0.61867000    -0.02800
C45         C  0.68640519  0.80775922  0.64535706     0.05800
C46         C  0.65946881  0.81898722  0.65538764     0.03900
H47         H  0.71326771  0.82644945  0.60426674     0.09000
H48         H  0.64664874  0.80964573  0.67571002     0.07900
N49         N  0.66011050  0.98574654  0.41331990    -0.26500
N50         N  0.63724946  0.96588771  0.41281961    -0.34400
C51         C  0.63568993  0.94923126  0.44152227     0.01800
C52         C  0.65873386  0.95878649  0.46108781     0.07900
C53         C  0.67374637  0.98220534  0.44262011    -0.05200
H54         H  0.61757215  0.93384614  0.44889884     0.08500
H55         H  0.69163734  0.99758640  0.45091570     0.09700
Cu56       Cu  0.60486889  0.96860763  0.37787348     0.44200
Cu57       Cu  0.66804877  0.02014149  0.37590696     0.42000
Cu58       Cu  0.60724740  0.03512552  0.31880670     0.43900
N59         N  0.56937550  0.98395653  0.35108058    -0.33900
N60         N  0.56968371  0.00924640  0.33004270    -0.28100
C61         C  0.54234776  0.01623105  0.32094403    -0.04200
C62         C  0.52412056  0.99425200  0.33724051     0.08000
C63         C  0.54202224  0.97410912  0.35596505     0.01800
H64         H  0.53614625  0.03695920  0.30523911     0.09400
H65         H  0.53558568  0.95524482  0.37367613     0.08500
N66         N  0.64784596  0.05670561  0.31431584    -0.35300
N67         N  0.66962637  0.05146604  0.33492811    -0.27500
C68         C  0.69240796  0.06982176  0.32510924    -0.02800
C69         C  0.68468097  0.08742580  0.29706934     0.05800
C70         C  0.65625331  0.07848277  0.29087372     0.03900
H71         H  0.71302240  0.07061169  0.33773092     0.09000
H72         H  0.64240350  0.08745781  0.27119580     0.07900
N73         N  0.36175526  0.99281162  0.42729377    -0.26500
N74         N  0.38514556  0.97386414  0.42642034    -0.34400
C75         C  0.38947815  0.96018671  0.45630413     0.01800
C76         C  0.36766515  0.97054452  0.47714607     0.07900
C77         C  0.35043957  0.99138453  0.45804115    -0.05200
H78         H  0.40847882  0.94599543  0.46313941     0.08500
H79         H  0.33257518  0.00655968  0.46657745     0.09700
Cu80       Cu  0.41445091  0.97364796  0.38807824     0.44200
Cu81       Cu  0.35032622  0.02377953  0.38768923     0.42000
Cu82       Cu  0.40968767  0.03965950  0.32907209     0.43900
N83         N  0.44822980  0.98726122  0.35779978    -0.33900
N84         N  0.44720708  0.01275823  0.33704965    -0.28100
C85         C  0.47387437  0.01836726  0.32504381    -0.04200
C86         C  0.49244931  0.99521935  0.33910493     0.08000
C87         C  0.47541555  0.97587036  0.35959578     0.01800
H88         H  0.47951858  0.03876543  0.30865964     0.09400
H89         H  0.48252077  0.95638231  0.37629933     0.08500
N90         N  0.36841298  0.05892570  0.32439501    -0.35300
N91         N  0.34686858  0.05329606  0.34513903    -0.27500
C92         C  0.32328874  0.06965225  0.33414068    -0.02800
C93         C  0.33045068  0.08624140  0.30513464     0.05800
C94         C  0.35912799  0.07876862  0.29977587     0.03900
H95         H  0.30260627  0.06949815  0.34649543     0.09000
H96         H  0.37244242  0.08739863  0.27951360     0.07900
N97         N  0.34454443  0.43024262  0.38595339    -0.26500
N98         N  0.36665295  0.45053226  0.38070608    -0.34400
C99         C  0.36951870  0.47160680  0.40643049     0.01800
C100        C  0.34824279  0.46468915  0.42926095     0.07900
C101        C  0.33283369  0.43806926  0.41559160    -0.05200
H102        H  0.38787014  0.48805363  0.41009836     0.08500
H103        H  0.31643296  0.42327877  0.42780249     0.09700
Cu104      Cu  0.39774979  0.44310631  0.34503296     0.44200
Cu105      Cu  0.33587788  0.38911935  0.35489850     0.42000
Cu106      Cu  0.39588693  0.36831831  0.29800185     0.43900
N107        N  0.43274547  0.42614690  0.31840143    -0.33900
N108        N  0.43250132  0.39790693  0.30125705    -0.28100
C109        C  0.45932444  0.39176019  0.29000043    -0.04200
C110        C  0.47721692  0.41742442  0.30086918     0.08000
C111        C  0.45962604  0.43874413  0.31874972     0.01800
H112        H  0.46557901  0.36945284  0.27649836     0.09400
H113        H  0.46611939  0.46083926  0.33251463     0.08500
N114        N  0.35685601  0.34307071  0.29980218    -0.35300
N115        N  0.33524458  0.34984744  0.32016321    -0.27500
C116        C  0.31381249  0.32756397  0.31446764    -0.02800
C117        C  0.32250709  0.30596764  0.28935998     0.05800
C118        C  0.34973656  0.31670731  0.28069284     0.03900
H119        H  0.29347620  0.32727527  0.32754611     0.09000
H120        H  0.36359435  0.30590906  0.26193369     0.07900
N121        N  0.64621361  0.43202159  0.37239351    -0.26500
N122        N  0.62326242  0.45168106  0.37126936    -0.34400
C123        C  0.62192460  0.46988581  0.39915934     0.01800
C124        C  0.64514037  0.46172396  0.41903981     0.07900
C125        C  0.66012840  0.43745309  0.40136521    -0.05200
H126        H  0.60365757  0.48528555  0.40605811     0.08500
H127        H  0.67792002  0.42242327  0.41034320     0.09700
Cu128      Cu  0.58999926  0.44721174  0.33741125     0.44200
Cu129      Cu  0.65345257  0.39456019  0.33696723     0.42000
Cu130      Cu  0.59191746  0.37923696  0.28088870     0.43900
N131        N  0.55408629  0.43124291  0.31138160    -0.33900
N132        N  0.55447900  0.40531901  0.29097718    -0.28100
C133        C  0.52719615  0.39733918  0.28250461    -0.04200
C134        C  0.50882591  0.41940264  0.29847151     0.08000
C135        C  0.52662069  0.44065243  0.31638605     0.01800
H136        H  0.52116514  0.37581687  0.26762760     0.09400
H137        H  0.52004885  0.45978612  0.33385313     0.08500
N138        N  0.63063543  0.35367525  0.27896527    -0.35300
N139        N  0.65276586  0.35840406  0.29926567    -0.27500
C140        C  0.67358111  0.33609675  0.29158267    -0.02800
C141        C  0.66394832  0.31659697  0.26523916     0.05800
C142        C  0.63679041  0.32858829  0.25790165     0.03900
H143        H  0.69412845  0.33429317  0.30429190     0.09000
H144        H  0.62228188  0.31937326  0.23891191     0.07900
N145        N  0.34933682  0.50494051  0.51017232    -0.26500
N146        N  0.37326270  0.48696158  0.51093449    -0.34400
C147        C  0.37476247  0.46791868  0.48359204     0.01800
C148        C  0.35055070  0.47373025  0.46450005     0.07900
C149        C  0.33488577  0.49765016  0.48192363    -0.05200
H150        H  0.39337800  0.45311343  0.47668590     0.08500
H151        H  0.31573993  0.51062834  0.47350493     0.09700
Cu152      Cu  0.40620188  0.49425372  0.54465614     0.44200
Cu153      Cu  0.34113936  0.54101203  0.54668368     0.42000
Cu154      Cu  0.40318365  0.56007515  0.60396252     0.43900
N155        N  0.44191900  0.51044769  0.57084898    -0.33900
N156        N  0.44169980  0.53553511  0.59227767    -0.28100
C157        C  0.46917866  0.54201432  0.60176369    -0.04200
C158        C  0.48732068  0.51984581  0.58527324     0.08000
C159        C  0.46915957  0.50026590  0.56606624     0.01800
H160        H  0.47554421  0.56210872  0.61832740     0.09400
H161        H  0.47533074  0.48097629  0.54858087     0.08500
N162        N  0.36127699  0.57904426  0.60863789    -0.35300
N163        N  0.33955089  0.57271771  0.58808183    -0.27500
C164        C  0.31610096  0.58960111  0.59851385    -0.02800
C165        C  0.32313501  0.60719473  0.62695731     0.05800
C166        C  0.35199614  0.59992609  0.63266278     0.03900
H167        H  0.29528693  0.58911111  0.58619859     0.09000
H168        H  0.36547478  0.60942943  0.65246240     0.07900
N169        N  0.65327679  0.49386744  0.50297612    -0.26500
N170        N  0.62752414  0.47962751  0.50395884    -0.34400
C171        C  0.62231689  0.46382786  0.47528435     0.01800
C172        C  0.64589059  0.46783539  0.45494662     0.07900
C173        C  0.66527792  0.48715120  0.47318707    -0.05200
H174        H  0.60175203  0.45275264  0.46860480     0.08500
H175        H  0.68527640  0.49795894  0.46441477     0.09700
Cu176      Cu  0.59705385  0.48834150  0.53983253     0.44200
Cu177      Cu  0.66676932  0.52595091  0.54116290     0.42000
Cu178      Cu  0.60672386  0.55010182  0.60011372     0.43900
N179        N  0.56326939  0.50597525  0.56778803    -0.33900
N180        N  0.56594494  0.53017568  0.58992617    -0.28100
C181        C  0.53934266  0.53864806  0.60084196    -0.04200
C182        C  0.51920464  0.51860454  0.58451180     0.08000
C183        C  0.53531127  0.49824394  0.56390369     0.01800
H184        H  0.53493453  0.55857767  0.61836244     0.09400
H185        H  0.52728013  0.48016571  0.54608959     0.08500
N186        N  0.65003437  0.56445844  0.60395795    -0.35300
N187        N  0.67111856  0.55664700  0.58314381    -0.27500
C188        C  0.69565005  0.57164904  0.59355039    -0.02800
C189        C  0.68990111  0.58932486  0.62231626     0.05800
C190        C  0.66076051  0.58420738  0.62809106     0.03900
H191        H  0.71623464  0.56986679  0.58100819     0.09000
H192        H  0.64796710  0.59469353  0.64790688     0.07900
N193        N  0.85118069  0.91978972  0.89634808    -0.26500
N194        N  0.87179694  0.94249841  0.89301406    -0.34400
C195        C  0.87309925  0.96158070  0.92037817     0.01800
C196        C  0.85227264  0.95079726  0.94224929     0.07900
C197        C  0.83892765  0.92393289  0.92639309    -0.05200
H198        H  0.89002787  0.97963720  0.92544488     0.08500
H199        H  0.82333218  0.90689800  0.93705388     0.09700
Cu200      Cu  0.90246510  0.94208360  0.85611793     0.44200
Cu201      Cu  0.84440418  0.88171315  0.86111227     0.42000
Cu202      Cu  0.90033059  0.87784779  0.79583219     0.43900
N203        N  0.93649976  0.93259940  0.82466651    -0.33900
N204        N  0.93609526  0.90826068  0.80245129    -0.29700
C205        C  0.96273576  0.90473898  0.78968313    -0.04200
C206        C  0.98071592  0.92799697  0.80481559     0.08000
C207        C  0.96329555  0.94533373  0.82669833     0.01800
H208        H  0.96895651  0.88514361  0.77256790     0.09400
H209        H  0.97004407  0.96387339  0.84474902     0.08500
N210        N  0.86375418  0.84802056  0.79715064    -0.35300
N211        N  0.84384277  0.84850114  0.82062438    -0.27500
C212        C  0.82387059  0.82484679  0.81352118    -0.02800
C213        C  0.83169685  0.80894434  0.78423024     0.05800
C214        C  0.85694719  0.82441126  0.77464849     0.03900
H215        H  0.80502836  0.81985133  0.82848648     0.09000
H216        H  0.86967835  0.81871600  0.75293684     0.07900
N217        N  0.14765434  0.93704110  0.88275680    -0.26500
N218        N  0.12481947  0.95688223  0.88252584    -0.34400
C219        C  0.12289116  0.97263439  0.91184351     0.01800
C220        C  0.14566669  0.96257105  0.93159197     0.07900
C221        C  0.16092179  0.93985340  0.91239385    -0.05200
H222        H  0.10441982  0.98724446  0.91962300     0.08500
H223        H  0.17821459  0.92369071  0.92069505     0.09700
Cu224      Cu  0.09243820  0.95419879  0.84731110     0.44200
Cu225      Cu  0.15487198  0.90129997  0.84591394     0.42000
Cu226      Cu  0.09435961  0.88417891  0.79022854     0.43900
N227        N  0.05746560  0.93899005  0.81908634    -0.33900
N228        N  0.05785238  0.91300943  0.79867318    -0.28100
C229        C  0.03071544  0.90652215  0.78850088    -0.04200
C230        C  0.01242067  0.92937708  0.80348218     0.08000
C231        C  0.03014364  0.94967195  0.82252177     0.01800
H232        H  0.02456733  0.88519948  0.77342648     0.09400
H233        H  0.02348199  0.96903882  0.83968992     0.08500
N234        N  0.13315219  0.85821725  0.78901461    -0.35300
N235        N  0.15507477  0.86438703  0.80920254    -0.27500
C236        C  0.17663667  0.84290420  0.80223971    -0.02800
C237        C  0.16786567  0.82222508  0.77640662     0.05800
C238        C  0.14024179  0.83275619  0.76864784     0.03900
H239        H  0.19716748  0.84264321  0.81499156     0.09000
H240        H  0.12623874  0.82256813  0.74960517     0.07900
N241        N  0.85229211  0.98695302  0.02479353    -0.26500
N242        N  0.87469867  0.96650820  0.02621384    -0.34400
C243        C  0.87605118  0.94844755  0.99819840     0.01800
C244        C  0.85331957  0.95750681  0.97800962     0.07900
C245        C  0.83882675  0.98237677  0.99542951    -0.05200
H246        H  0.89388012  0.93223153  0.99164289     0.08500
H247        H  0.82128815  0.99776076  0.98638988     0.09700
Cu248      Cu  0.90674942  0.96929373  0.06164136     0.44200
Cu249      Cu  0.84448943  0.02266618  0.06174296     0.42000
Cu250      Cu  0.90488626  0.03469819  0.12133534     0.43900
N251        N  0.94238668  0.98331006  0.08910099    -0.33900
N252        N  0.94237869  0.00822008  0.11072098    -0.28100
C253        C  0.96977610  0.01410802  0.12060553    -0.04200
C254        C  0.98770797  0.99177622  0.10416686     0.08000
C255        C  0.96953909  0.97264421  0.08455201     0.01800
H256        H  0.97627035  0.03422815  0.13706232     0.09400
H257        H  0.97570435  0.95368932  0.06672623     0.08500
N258        N  0.86496759  0.05833942  0.12432358    -0.35300
N259        N  0.84343185  0.05451555  0.10298640    -0.27500
C260        C  0.82127969  0.07417606  0.11251472    -0.02800
C261        C  0.82929140  0.09108077  0.14117353     0.05800
C262        C  0.85702612  0.08036064  0.14786134     0.03900
H263        H  0.80092163  0.07590245  0.09947113     0.09000
H264        H  0.87060794  0.08821154  0.16830843     0.07900
N265        N  0.15187064  0.98444759  0.01873661    -0.26500
N266        N  0.12762950  0.96691414  0.01834015    -0.34400
C267        C  0.12314608  0.95470720  0.98779601     0.01800
C268        C  0.14572416  0.96460702  0.96788599     0.07900
C269        C  0.16361687  0.98356690  0.98819343    -0.05200
H270        H  0.10368299  0.94184476  0.97998592     0.08500
H271        H  0.18233178  0.99790692  0.98070629     0.09700
Cu272      Cu  0.09776994  0.96684201  0.05611631     0.44200
Cu273      Cu  0.16382331  0.01335244  0.05963632     0.42000
Cu274      Cu  0.10478567  0.02711975  0.12025013     0.43900
N275        N  0.06383660  0.98068255  0.08612838    -0.33900
N276        N  0.06571224  0.00418823  0.10912765    -0.28100
C277        C  0.03897404  0.01117085  0.12035273    -0.04200
C278        C  0.01949709  0.99091704  0.10345681     0.08000
C279        C  0.03608915  0.97190246  0.08210595     0.01800
H280        H  0.03400391  0.03053584  0.13826955     0.09400
H281        H  0.02845428  0.95448764  0.06345786     0.08500
N282        N  0.14611442  0.04695929  0.12408157    -0.35300
N283        N  0.16723249  0.04243731  0.10248264    -0.27500
C284        C  0.19037200  0.06038704  0.11237748    -0.02800
C285        C  0.18356279  0.07676331  0.14156128     0.05800
C286        C  0.15531685  0.06764927  0.14820432     0.03900
H287        H  0.21055260  0.06182498  0.09901470     0.09000
H288        H  0.14195943  0.07604851  0.16855893     0.07900
N289        N  0.86106569  0.48657316  0.92369555    -0.26500
N290        N  0.88776940  0.47509341  0.92487012    -0.34400
C291        C  0.89239985  0.46064297  0.95423067     0.01800
C292        C  0.86738933  0.46273849  0.97253992     0.07900
C293        C  0.84775388  0.47930693  0.95249525    -0.05200
H294        H  0.91316387  0.45150118  0.96258455     0.08500
H295        H  0.82647289  0.48803451  0.95938086     0.09700
Cu296      Cu  0.91898769  0.48529872  0.89017786     0.44200
Cu297      Cu  0.84787926  0.51674137  0.88485073     0.42000
Cu298      Cu  0.90841975  0.54661295  0.82911330     0.43900
N299        N  0.95236254  0.50333432  0.86176527    -0.33900
N300        N  0.94951166  0.52743414  0.83968912    -0.28100
C301        C  0.97608415  0.53591690  0.82854822    -0.04200
C302        C  0.99634059  0.51587083  0.84451870     0.08000
C303        C  0.98032432  0.49557204  0.86520945     0.01800
H304        H  0.98038277  0.55563691  0.81089254     0.09400
H305        H  0.98843259  0.47746989  0.88280300     0.08500
N306        N  0.86453065  0.55895323  0.82476903    -0.35300
N307        N  0.84354533  0.54842835  0.84448986    -0.27500
C308        C  0.81851370  0.56240447  0.83490820    -0.02800
C309        C  0.82367759  0.58251265  0.80788251     0.05800
C310        C  0.85308865  0.57976797  0.80204598     0.03900
H311        H  0.79800686  0.55865345  0.84722234     0.09000
H312        H  0.86549677  0.59264532  0.78335251     0.07900
N313        N  0.16253122  0.49577665  0.92409073    -0.26500
N314        N  0.13760835  0.47982825  0.92171873    -0.34400
C315        C  0.13323064  0.46179457  0.94917503     0.01800
C316        C  0.15671877  0.46601835  0.96980143     0.07900
C317        C  0.17497885  0.48785238  0.95328496    -0.05200
H318        H  0.11345799  0.44850387  0.95473697     0.08500
H319        H  0.19452485  0.49920124  0.96287229     0.09700
Cu320      Cu  0.10775491  0.48836850  0.88499256     0.44200
Cu321      Cu  0.17422398  0.53139186  0.88902230     0.42000
Cu322      Cu  0.11347181  0.55798663  0.83210154     0.43900
N323        N  0.07334448  0.50589074  0.85794184    -0.33900
N324        N  0.07415207  0.53290553  0.83917086    -0.28100
C325        C  0.04684252  0.54030932  0.82961521    -0.04200
C326        C  0.02827601  0.51668344  0.84339918     0.08000
C327        C  0.04604155  0.49532094  0.86092434     0.01800
H328        H  0.04081237  0.56212494  0.81532984     0.09400
H329        H  0.03950656  0.47471541  0.87657179     0.08500
N330        N  0.15636067  0.57506426  0.83042551    -0.35300
N331        N  0.17757961  0.56594038  0.85058715    -0.27500
C332        C  0.20185173  0.58240260  0.84205884    -0.02800
C333        C  0.19590779  0.60256115  0.81515358     0.05800
C334        C  0.16683635  0.59731945  0.80850526     0.03900
H335        H  0.22244715  0.57977968  0.85455160     0.09000
H336        H  0.15400019  0.60913346  0.78946571     0.07900
N337        N  0.86101589  0.42626571  0.05386844    -0.26500
N338        N  0.88440652  0.44501042  0.05723665    -0.34400
C339        C  0.88795101  0.46352438  0.02997584     0.01800
C340        C  0.86580536  0.45636723  0.00819115     0.07900
C341        C  0.84895335  0.43265341  0.02410970    -0.05200
H342        H  0.90713541  0.47810565  0.02475965     0.08500
H343        H  0.83144641  0.41825619  0.01333968     0.09700
Cu344      Cu  0.91604877  0.43770317  0.09234602     0.44200
Cu345      Cu  0.85156504  0.38760543  0.08661029     0.42000
Cu346      Cu  0.91252729  0.36379848  0.14050192     0.43900
N347        N  0.95127455  0.41877699  0.11722186    -0.33900
N348        N  0.95043488  0.39061918  0.13429766    -0.28100
C349        C  0.97751500  0.38209071  0.14300687    -0.04200
C350        C  0.99617698  0.40614506  0.13068102     0.08000
C351        C  0.97877550  0.42905429  0.11458785     0.01800
H352        H  0.98327428  0.35917484  0.15568151     0.09400
H353        H  0.98569158  0.45027970  0.09997660     0.08500
N354        N  0.87226134  0.34107321  0.14096786    -0.35300
N355        N  0.85036412  0.34930233  0.12151432    -0.27500
C356        C  0.82781522  0.32915221  0.12831737    -0.02800
C357        C  0.83595467  0.30731874  0.15329540     0.05800
C358        C  0.86417299  0.31567449  0.16068352     0.03900
H359        H  0.80705981  0.33063486  0.11612768     0.09000
H360        H  0.87790773  0.30409147  0.17909400     0.07900
N361        N  0.16162363  0.42272048  0.04813468    -0.26500
N362        N  0.13854932  0.44165394  0.05272685    -0.34400
C363        C  0.13525925  0.46213993  0.02675963     0.01800
C364        C  0.15743672  0.45634900  0.00477252     0.07900
C365        C  0.17377653  0.43107254  0.01897710    -0.05200
H366        H  0.11647561  0.47770132  0.02262469     0.08500
H367        H  0.19123764  0.41739972  0.00742233     0.09700
Cu368      Cu  0.10766307  0.43372771  0.08848077     0.44200
Cu369      Cu  0.17108808  0.38184208  0.07836511     0.42000
Cu370      Cu  0.10890841  0.35572259  0.12901046     0.43900
N371        N  0.07262239  0.41541105  0.11402811    -0.33900
N372        N  0.07258527  0.38574213  0.12841498    -0.28100
C373        C  0.04561033  0.37855645  0.13850125    -0.04200
C374        C  0.02787250  0.40501204  0.12968346     0.08000
C375        C  0.04575522  0.42795940  0.11435228     0.01800
H376        H  0.03911698  0.35498308  0.14940747     0.09400
H377        H  0.03941413  0.45097115  0.10222574     0.08500
N378        N  0.14856556  0.33200508  0.12847329    -0.35300
N379        N  0.17122519  0.34118100  0.11076434    -0.27500
C380        C  0.19354636  0.32088885  0.11830041    -0.02800
C381        C  0.18448884  0.29820763  0.14201799     0.05800
C382        C  0.15580729  0.30593297  0.14765410     0.03900
H383        H  0.21496754  0.32308407  0.10799414     0.09000
H384        H  0.14117975  0.29402438  0.16484889     0.07900
O385        O  0.26527238  0.74923344  0.67987879    -0.72200
O386        O  0.22098147  0.67548529  0.72426323    -0.73100
O387        O  0.21865917  0.74653694  0.72539816    -0.61800
O388        O  0.26808501  0.67776961  0.67885611    -0.70200
O389        O  0.29902818  0.67860091  0.72084918    -0.69700
O390        O  0.24996658  0.74745224  0.76706067    -0.61000
O391        O  0.25166566  0.67596699  0.76652980    -0.73500
O392        O  0.29668677  0.75019634  0.72140952    -0.72300
Cu393      Cu  0.24222306  0.71211900  0.70065415     1.04600
Cu394      Cu  0.27544685  0.71299793  0.74543976     1.04300
C395        C  0.28777069  0.76160221  0.69360792     0.94000
C396        C  0.22882823  0.66453275  0.75252445     0.93200
C397        C  0.22672183  0.75795907  0.75356776     0.85300
C398        C  0.29149619  0.66759272  0.69238109     0.91600
O399        O  0.78791589  0.73011621  0.72952198    -0.72200
O400        O  0.74458441  0.65895888  0.67783056    -0.73100
O401        O  0.74022241  0.72970462  0.68520875    -0.61800
O402        O  0.79307635  0.65944311  0.72201564    -0.70200
O403        O  0.76340975  0.65228079  0.76446260    -0.69700
O404        O  0.71040493  0.72317505  0.72760511    -0.61000
O405        O  0.71501414  0.65263037  0.72049960    -0.73500
O406        O  0.75814002  0.72292940  0.77185801    -0.72300
Cu407      Cu  0.76751093  0.69470786  0.70216283     1.04600
Cu408      Cu  0.73574694  0.68739095  0.74758063     1.04300
C409        C  0.77960515  0.73790667  0.75875093     0.94000
C410        C  0.72247743  0.64512700  0.69100557     0.93200
C411        C  0.71709705  0.73767786  0.70052213     0.85300
C412        C  0.78684320  0.64512553  0.74927956     0.91600
O413        O  0.24539965  0.15346710  0.28390126    -0.72200
O414        O  0.20064211  0.22142078  0.23207971    -0.73100
O415        O  0.20179477  0.15062407  0.23441627    -0.61800
O416        O  0.24418376  0.22485060  0.28137987    -0.70200
O417        O  0.27765578  0.22401812  0.24218775    -0.69700
O418        O  0.23510356  0.15000385  0.19500291    -0.61000
O419        O  0.23408524  0.22121098  0.19279830    -0.73500
O420        O  0.27892049  0.15268752  0.24474966    -0.72300
Cu421      Cu  0.22187528  0.18755634  0.25931507     1.04600
Cu422      Cu  0.25766404  0.18688231  0.21733874     1.04300
C423        C  0.26930203  0.14244944  0.27260837     0.94000
C424        C  0.21019029  0.23205609  0.20442398     0.93200
C425        C  0.21145782  0.13899449  0.20713361     0.85300
C426        C  0.26747457  0.23642094  0.26895450     0.91600
O427        O  0.75128104  0.23663352  0.16358613    -0.72200
O428        O  0.70340045  0.16639409  0.20863986    -0.73100
O429        O  0.70705561  0.23751461  0.21190633    -0.61800
O430        O  0.74798943  0.16546996  0.16034718    -0.70200
O431        O  0.78104148  0.16207692  0.20005152    -0.69700
O432        O  0.73996710  0.23382857  0.25173552    -0.61000
O433        O  0.73642948  0.16250033  0.24833294    -0.73500
O434        O  0.78426034  0.23300507  0.20336799    -0.72300
Cu435      Cu  0.72626700  0.20159404  0.18475135     1.04600
Cu436      Cu  0.76153985  0.19766770  0.22729447     1.04300
C437        C  0.77525317  0.24593281  0.17633212     0.94000
C438        C  0.71235249  0.15336143  0.23558396     0.93200
C439        C  0.71721475  0.24726523  0.23979209     0.85300
C440        C  0.77117171  0.15267352  0.17193060     0.91600
C441        C  0.20228435  0.27263446  0.15888945    -0.15600
C442        C  0.19294383  0.25698594  0.18627854    -0.30800
H443        H  0.22371697  0.26740492  0.14923402     0.13400
H444        H  0.17195452  0.26316451  0.19659450     0.13900
C445        C  0.81881029  0.28098158  0.16975966    -0.15600
C446        C  0.79231530  0.27199925  0.15943475    -0.30800
H447        H  0.82849493  0.26847161  0.19091986     0.13400
H448        H  0.78282036  0.28383583  0.13782428     0.13900
C449        C  0.21632468  0.62560308  0.79841650    -0.15600
C450        C  0.21028805  0.63932229  0.76886709    -0.30800
H451        H  0.23663596  0.63143625  0.81075407     0.13400
H452        H  0.19037145  0.63250598  0.75620097     0.13900
C453        C  0.80212667  0.60419640  0.79153207    -0.15600
C454        C  0.80760114  0.62101519  0.76351496    -0.30800
H455        H  0.78118654  0.60676354  0.80339730     0.13400
H456        H  0.82822057  0.61787208  0.75110514     0.13900
C457        C  0.19440202  0.11324786  0.18953960    -0.15600
C458        C  0.20216707  0.10051923  0.16003648    -0.30800
H459        H  0.17430646  0.10534304  0.20099868     0.13400
H460        H  0.22247622  0.10806761  0.14880020     0.13900
C461        C  0.81283322  0.11567638  0.16106294    -0.15600
C462        C  0.78663403  0.12710603  0.15222234    -0.30800
H463        H  0.82303057  0.12515097  0.18347685     0.13400
H464        H  0.77655632  0.11830759  0.12951094     0.13900
C465        C  0.18414836  0.79516387  0.75958575    -0.15600
C466        C  0.20968506  0.78392885  0.77090162    -0.30800
H467        H  0.17480614  0.78426685  0.73731657     0.13400
H468        H  0.21868019  0.79418760  0.79360701     0.13900
C469        C  0.79432530  0.76468812  0.77781385    -0.15600
C470        C  0.81709015  0.78158658  0.76583382    -0.30800
H471        H  0.78598884  0.77075519  0.80218714     0.13400
H472        H  0.82563299  0.77504611  0.74164884     0.13900
C473        C  0.71029665  0.61066004  0.64138863    -0.15600
C474        C  0.70427092  0.62118784  0.67226006    -0.30800
H475        H  0.73043610  0.61801991  0.62970120     0.13400
H476        H  0.68459998  0.61270178  0.68421859     0.13900
C477        C  0.30361676  0.62983959  0.64556403    -0.15600
C478        C  0.31057888  0.64350669  0.67501658    -0.30800
H479        H  0.28277508  0.63548543  0.63441777     0.13400
H480        H  0.33108757  0.63732554  0.68664643     0.13900
C481        C  0.67843130  0.28879065  0.24768733    -0.15600
C482        C  0.70301657  0.27461301  0.25838321    -0.30800
H483        H  0.66814123  0.27945272  0.22530664     0.13400
H484        H  0.71307596  0.28327048  0.28113753     0.13900
C485        C  0.30713212  0.27743423  0.27388146    -0.15600
C486        C  0.28233928  0.26468959  0.28560563    -0.30800
H487        H  0.31700031  0.26625638  0.25209302     0.13400
H488        H  0.27259908  0.27526873  0.30772736     0.13900
C489        C  0.28585642  0.11811596  0.29253532    -0.15600
C490        C  0.31261723  0.10840319  0.28416572    -0.30800
H491        H  0.27619126  0.10915265  0.31531361     0.13400
H492        H  0.32240166  0.11804627  0.26169305     0.13900
C493        C  0.69431674  0.12783862  0.25198807    -0.15600
C494        C  0.70305634  0.11177109  0.27940469    -0.30800
H495        H  0.67324977  0.12246507  0.24129900     0.13400
H496        H  0.72434026  0.11690584  0.28967446     0.13900
C497        C  0.70467126  0.78094453  0.65940893    -0.15600
C498        C  0.69789489  0.76390129  0.68699045    -0.30800
H499        H  0.72478716  0.77545449  0.64661500     0.13400
H500        H  0.67804201  0.76949529  0.70021936     0.13900
C501        C  0.30297601  0.78951212  0.67681505    -0.15600
C502        C  0.32797753  0.80254412  0.68798866    -0.30800
H503        H  0.29330439  0.79934817  0.65435856     0.13400
H504        H  0.33802585  0.79203892  0.70995011     0.13900
loop_ 
_geom_bond_atom_site_label_1 
_geom_bond_atom_site_label_2 
_geom_bond_distance 
_geom_bond_site_symmetry_2 
_ccdc_geom_bond_type 
N1            N2   1.323       .  A
N1            C5   1.351       .  A
N1           Cu9   2.095       .  S
N2            C3   1.342       .  A
N2           Cu8   2.069       .  S
C3            C4   1.380       .  A
C3            H6   1.082       .  S
C4            C5   1.387       .  A
C4           C76   1.471       .  S
C5            H7   1.082       .  S
Cu8          N11   2.069       .  S
Cu9          N19   2.097       .  S
Cu10         N12   2.080       .  S
Cu10         N18   2.082       .  S
N11          N12   1.321       .  A
N11          C15   1.344       .  A
N12          C13   1.348       .  A
C13          C14   1.386       .  A
C13          H16   1.082       .  S
C14          C15   1.384       .  A
C14          C38   1.476       .  S
C15          H17   1.082       .  S
N18          N19   1.324       .  A
N18          C22   1.345       .  A
N19          C20   1.350       .  A
C20          C21   1.390       .  A
C20          H23   1.081       .  S
C21          C22   1.381       .  A
C21         C502   1.485       .  S
C22          H24   1.082       .  S
N25          N26   1.321       .  A
N25          C29   1.348       .  A
N25         Cu33   2.076       .  S
N26          C27   1.341       .  A
N26         Cu32   2.065       .  S
C27          C28   1.380       .  A
C27          H30   1.082       .  S
C28          C29   1.384       .  A
C28          C52   1.464       .  S
C29          H31   1.082       .  S
Cu32         N35   2.065       .  S
Cu33         N43   2.077       .  S
Cu34         N36   2.087       .  S
Cu34         N42   2.088       .  S
N35          N36   1.321       .  A
N35          C39   1.343       .  A
N36          C37   1.349       .  A
C37          C38   1.388       .  A
C37          H40   1.081       .  S
C38          C39   1.382       .  A
C39          H41   1.082       .  S
N42          N43   1.324       .  A
N42          C46   1.348       .  A
N43          C44   1.344       .  A
C44          C45   1.381       .  A
C44          H47   1.084       .  S
C45          C46   1.387       .  A
C45         C497   1.478       .  S
C46          H48   1.081       .  S
N49          N50   1.321       .  A
N49          C53   1.348       .  A
N49         Cu57   2.077   1_565  S
N50          C51   1.340       .  A
N50         Cu56   2.060       .  S
C51          C52   1.379       .  A
C51          H54   1.082       .  S
C52          C53   1.385       .  A
C53          H55   1.082       .  S
Cu56         N59   2.061       .  S
Cu57         N67   2.079       .  S
Cu58         N60   2.073       .  S
Cu58         N66   2.075       .  S
N59          N60   1.321   1_565  A
N59          C63   1.341       .  A
N60          C61   1.347       .  A
C61          C62   1.385   1_545  A
C61          H64   1.082       .  S
C62          C63   1.381       .  A
C62          C86   1.469       .  S
C63          H65   1.082       .  S
N66          N67   1.324       .  A
N66          C70   1.345       .  A
N67          C68   1.344       .  A
C68          C69   1.381       .  A
C68          H71   1.082       .  S
C69          C70   1.385       .  A
C69         C494   1.477       .  S
C70          H72   1.082       .  S
N73          N74   1.322       .  A
N73          C77   1.351       .  A
N73         Cu81   2.092   1_565  S
N74          C75   1.341       .  A
N74         Cu80   2.062       .  S
C75          C76   1.380       .  A
C75          H78   1.082       .  S
C76          C77   1.388       .  A
C77          H79   1.082   1_565  S
Cu80         N83   2.062       .  S
Cu81         N91   2.093       .  S
Cu82         N84   2.068       .  S
Cu82         N90   2.069       .  S
N83          N84   1.320   1_565  A
N83          C87   1.341       .  A
N84          C85   1.347       .  A
C85          C86   1.385   1_545  A
C85          H88   1.082       .  S
C86          C87   1.381       .  A
C87          H89   1.082       .  S
N90          N91   1.324       .  A
N90          C94   1.343       .  A
N91          C92   1.348       .  A
C92          C93   1.388       .  A
C92          H95   1.081       .  S
C93          C94   1.379       .  A
C93         C490   1.478       .  S
C94          H96   1.083       .  S
N97          N98   1.322       .  A
N97         C101   1.352       .  A
N97        Cu105   2.099       .  S
N98          C99   1.340       .  A
N98        Cu104   2.061       .  S
C99         C100   1.380       .  A
C99         H102   1.082       .  S
C100        C101   1.390       .  A
C100        C148   1.471       .  S
C101        H103   1.082       .  S
Cu104       N107   2.061       .  S
Cu105       N115   2.099       .  S
Cu106       N108   2.068       .  S
Cu106       N114   2.069       .  S
N107        N108   1.320       .  A
N107        C111   1.342       .  A
N108        C109   1.346       .  A
C109        C110   1.385       .  A
C109        H112   1.082       .  S
C110        C111   1.381       .  A
C110        C134   1.469       .  S
C111        H113   1.082       .  S
N114        N115   1.325       .  A
N114        C118   1.342       .  A
N115        C116   1.350       .  A
C116        C117   1.389       .  A
C116        H119   1.081       .  S
C117        C118   1.378       .  A
C117        C485   1.477       .  S
C118        H120   1.083       .  S
N121        N122   1.322       .  A
N121        C125   1.352       .  A
N121       Cu129   2.093       .  S
N122        C123   1.340       .  A
N122       Cu128   2.065       .  S
C123        C124   1.380       .  A
C123        H126   1.082       .  S
C124        C125   1.388       .  A
C124        C172   1.471       .  S
C125        H127   1.082       .  S
Cu128       N131   2.064       .  S
Cu129       N139   2.094       .  S
Cu130       N132   2.064       .  S
Cu130       N138   2.065       .  S
N131        N132   1.320       .  A
N131        C135   1.342       .  A
N132        C133   1.346       .  A
C133        C134   1.384       .  A
C133        H136   1.082       .  S
C134        C135   1.383       .  A
C135        H137   1.082       .  S
N138        N139   1.324       .  A
N138        C142   1.342       .  A
N139        C140   1.348       .  A
C140        C141   1.388       .  A
C140        H143   1.083       .  S
C141        C142   1.378       .  A
C141        C481   1.477       .  S
C142        H144   1.082       .  S
N145        N146   1.321       .  A
N145        C149   1.352       .  A
N145       Cu153   2.092       .  S
N146        C147   1.340       .  A
N146       Cu152   2.063       .  S
C147        C148   1.380       .  A
C147        H150   1.082       .  S
C148        C149   1.390       .  A
C149        H151   1.082       .  S
Cu152       N155   2.063       .  S
Cu153       N163   2.095       .  S
Cu154       N156   2.090       .  S
Cu154       N162   2.092       .  S
N155        N156   1.321       .  A
N155        C159   1.340       .  A
N156        C157   1.352       .  A
C157        C158   1.390       .  A
C157        H160   1.082       .  S
C158        C159   1.382       .  A
C158        C182   1.478       .  S
C159        H161   1.082       .  S
N162        N163   1.327       .  A
N162        C166   1.348       .  A
N163        C164   1.346       .  A
C164        C165   1.382       .  A
C164        H167   1.084       .  S
C165        C166   1.387       .  A
C165        C477   1.483       .  S
C166        H168   1.081       .  S
N169        N170   1.321       .  A
N169        C173   1.353       .  A
N169       Cu177   2.094       .  S
N170        C171   1.338       .  A
N170       Cu176   2.055       .  S
C171        C172   1.378       .  A
C171        H174   1.082       .  S
C172        C173   1.390       .  A
C173        H175   1.082       .  S
Cu176       N179   2.055       .  S
Cu177       N187   2.097       .  S
Cu178       N180   2.087       .  S
Cu178       N186   2.090       .  S
N179        N180   1.319       .  A
N179        C183   1.339       .  A
N180        C181   1.352       .  A
C181        C182   1.391       .  A
C181        H184   1.082       .  S
C182        C183   1.382       .  A
C183        H185   1.082       .  S
N186        N187   1.327       .  A
N186        C190   1.345       .  A
N187        C188   1.349       .  A
C188        C189   1.384       .  A
C188        H191   1.083       .  S
C189        C190   1.385       .  A
C189        C473   1.483       .  S
C190        H192   1.081       .  S
N193        N194   1.322       .  A
N193        C197   1.351       .  A
N193       Cu201   2.100       .  S
N194        C195   1.341       .  A
N194       Cu200   2.062       .  S
C195        C196   1.379       .  A
C195        H198   1.082       .  S
C196        C197   1.389       .  A
C196        C244   1.469       .  S
C197        H199   1.082       .  S
Cu200       N203   2.062       .  S
Cu201       N211   2.101       .  S
Cu202       N204   2.067       .  S
Cu202       N210   2.069       .  S
N203        N204   1.320       .  A
N203        C207   1.342       .  A
N204        C205   1.346       .  A
C205        C206   1.385       .  A
C205        H208   1.081       .  S
C206        C207   1.382       .  A
C206        C230   1.470   1_655  S
C207        H209   1.082       .  S
N210        N211   1.325       .  A
N210        C214   1.343       .  A
N211        C212   1.349       .  A
C212        C213   1.390       .  A
C212        H215   1.082       .  S
C213        C214   1.378       .  A
C213        C470   1.480       .  S
C214        H216   1.082       .  S
N217        N218   1.321       .  A
N217        C221   1.349       .  A
N217       Cu225   2.085       .  S
N218        C219   1.342       .  A
N218       Cu224   2.067       .  S
C219        C220   1.382       .  A
C219        H222   1.082       .  S
C220        C221   1.386       .  A
C220        C268   1.469       .  S
C221        H223   1.082       .  S
Cu224       N227   2.068       .  S
Cu225       N235   2.086       .  S
Cu226       N228   2.074       .  S
Cu226       N234   2.075       .  S
N227        N228   1.322       .  A
N227        C231   1.343       .  A
N228        C229   1.346       .  A
C229        C230   1.384       .  A
C229        H232   1.081       .  S
C230        C231   1.382       .  A
C231        H233   1.082       .  S
N234        N235   1.323       .  A
N234        C238   1.346       .  A
N235        C236   1.346       .  A
C236        C237   1.388       .  A
C236        H239   1.080       .  S
C237        C238   1.382       .  A
C237        C465   1.481       .  S
C238        H240   1.083       .  S
N241        N242   1.321       .  A
N241        C245   1.351   1_554  A
N241       Cu249   2.092   1_565  S
N242        C243   1.341   1_554  A
N242       Cu248   2.062       .  S
C243        C244   1.379       .  A
C243        H246   1.082       .  S
C244        C245   1.389       .  A
C245        H247   1.082       .  S
Cu248       N251   2.062       .  S
Cu249       N259   2.092       .  S
Cu250       N252   2.078       .  S
Cu250       N258   2.080       .  S
N251        N252   1.320   1_565  A
N251        C255   1.341       .  A
N252        C253   1.349       .  A
C253        C254   1.387   1_545  A
C253        H256   1.082       .  S
C254        C255   1.381       .  A
C254        C278   1.473   1_655  S
C255        H257   1.081       .  S
N258        N259   1.325       .  A
N258        C262   1.344       .  A
N259        C260   1.348       .  A
C260        C261   1.387       .  A
C260        H263   1.081       .  S
C261        C262   1.380       .  A
C261        C461   1.479       .  S
C262        H264   1.082       .  S
N265        N266   1.322       .  A
N265        C269   1.350   1_554  A
N265       Cu273   2.085   1_565  S
N266        C267   1.341   1_554  A
N266       Cu272   2.062       .  S
C267        C268   1.379       .  A
C267        H270   1.082       .  S
C268        C269   1.386       .  A
C269        H271   1.082       .  S
Cu272       N275   2.062       .  S
Cu273       N283   2.086       .  S
Cu274       N276   2.074       .  S
Cu274       N282   2.075       .  S
N275        N276   1.320   1_565  A
N275        C279   1.341       .  A
N276        C277   1.349       .  A
C277        C278   1.387   1_545  A
C277        H280   1.082       .  S
C278        C279   1.382       .  A
C279        H281   1.081       .  S
N282        N283   1.325       .  A
N282        C286   1.343       .  A
N283        C284   1.347       .  A
C284        C285   1.383       .  A
C284        H287   1.082       .  S
C285        C286   1.384       .  A
C285        C458   1.478       .  S
C286        H288   1.083       .  S
N289        N290   1.320       .  A
N289        C293   1.350       .  A
N289       Cu297   2.072       .  S
N290        C291   1.338       .  A
N290       Cu296   2.058       .  S
C291        C292   1.378       .  A
C291        H294   1.082       .  S
C292        C293   1.386       .  A
C292        C340   1.466   1_556  S
C293        H295   1.082       .  S
Cu296       N299   2.058       .  S
Cu297       N307   2.076       .  S
Cu298       N300   2.095       .  S
Cu298       N306   2.099       .  S
N299        N300   1.320       .  A
N299        C303   1.339       .  A
N300        C301   1.354       .  A
C301        C302   1.392       .  A
C301        H304   1.082       .  S
C302        C303   1.382       .  A
C302        C326   1.480   1_655  S
C303        H305   1.082       .  S
N306        N307   1.327       .  A
N306        C310   1.348       .  A
N307        C308   1.343       .  A
C308        C309   1.378       .  A
C308        H311   1.084       .  S
C309        C310   1.387       .  A
C309        C453   1.477       .  S
C310        H312   1.081       .  S
N313        N314   1.320       .  A
N313        C317   1.350       .  A
N313       Cu321   2.081       .  S
N314        C315   1.340       .  A
N314       Cu320   2.055       .  S
C315        C316   1.378       .  A
C315        H318   1.082       .  S
C316        C317   1.387       .  A
C316        C364   1.466   1_556  S
C317        H319   1.082       .  S
Cu320       N323   2.055       .  S
Cu321       N331   2.085       .  S
Cu322       N324   2.097       .  S
Cu322       N330   2.100       .  S
N323        N324   1.320       .  A
N323        C327   1.338       .  A
N324        C325   1.355       .  A
C325        C326   1.393       .  A
C325        H328   1.082       .  S
C326        C327   1.381       .  A
C327        H329   1.081       .  S
N330        N331   1.327       .  A
N330        C334   1.346       .  A
N331        C332   1.347       .  A
C332        C333   1.381       .  A
C332        H335   1.083       .  S
C333        C334   1.388       .  A
C333        C449   1.483       .  S
C334        H336   1.081       .  S
N337        N338   1.321       .  A
N337        C341   1.350       .  A
N337       Cu345   2.081       .  S
N338        C339   1.338       .  A
N338       Cu344   2.059       .  S
C339        C340   1.379       .  A
C339        H342   1.082       .  S
C340        C341   1.386       .  A
C341        H343   1.082       .  S
Cu344       N347   2.059       .  S
Cu345       N355   2.083       .  S
Cu346       N348   2.070       .  S
Cu346       N354   2.072       .  S
N347        N348   1.320       .  A
N347        C351   1.342       .  A
N348        C349   1.346       .  A
C349        C350   1.385       .  A
C349        H352   1.082       .  S
C350        C351   1.382       .  A
C350        C374   1.469   1_655  S
C351        H353   1.082       .  S
N354        N355   1.324       .  A
N354        C358   1.344       .  A
N355        C356   1.346       .  A
C356        C357   1.387       .  A
C356        H359   1.081       .  S
C357        C358   1.380       .  A
C357        C445   1.476       .  S
C358        H360   1.083       .  S
N361        N362   1.322       .  A
N361        C365   1.350       .  A
N361       Cu369   2.086       .  S
N362        C363   1.340       .  A
N362       Cu368   2.060       .  S
C363        C364   1.379       .  A
C363        H366   1.082       .  S
C364        C365   1.386       .  A
C365        H367   1.082       .  S
Cu368       N371   2.060       .  S
Cu369       N379   2.087       .  S
Cu370       N372   2.066       .  S
Cu370       N378   2.067       .  S
N371        N372   1.319       .  A
N371        C375   1.342       .  A
N372        C373   1.346       .  A
C373        C374   1.385       .  A
C373        H376   1.082       .  S
C374        C375   1.382       .  A
C375        H377   1.082       .  S
N378        N379   1.323       .  A
N378        C382   1.341       .  A
N379        C380   1.348       .  A
C380        C381   1.385       .  A
C380        H383   1.080       .  S
C381        C382   1.383       .  A
C381        C441   1.479       .  S
C382        H384   1.082       .  S
O385       Cu393   2.010       .  S
O385        C395   1.277       .  A
O386       Cu393   2.005       .  S
O386        C396   1.276       .  A
O387       Cu393   2.018       .  S
O387        C397   1.279       .  A
O388       Cu393   2.021       .  S
O388        C398   1.280       .  A
O389       Cu394   2.015       .  S
O389        C398   1.277       .  A
O390       Cu394   2.011       .  S
O390        C397   1.277       .  A
O391       Cu394   2.031       .  S
O391        C396   1.281       .  A
O392       Cu394   2.030       .  S
O392        C395   1.281       .  A
Cu393      Cu394   2.373       .  S
C395        C501   1.483       .  S
C396        C450   1.479       .  S
C397        C466   1.478       .  S
C398        C478   1.482       .  S
O399       Cu407   2.022       .  S
O399        C409   1.281       .  A
O400       Cu407   2.026       .  S
O400        C410   1.280       .  A
O401       Cu407   2.005       .  S
O401        C411   1.278       .  A
O402       Cu407   2.007       .  S
O402        C412   1.276       .  A
O403       Cu408   2.018       .  S
O403        C412   1.280       .  A
O404       Cu408   2.018       .  S
O404        C411   1.278       .  A
O405       Cu408   2.005       .  S
O405        C410   1.276       .  A
O406       Cu408   2.006       .  S
O406        C409   1.276       .  A
Cu407      Cu408   2.373       .  S
C409        C469   1.479       .  S
C410        C474   1.478       .  S
C411        C498   1.479       .  S
C412        C454   1.477       .  S
O413       Cu421   2.007       .  S
O413        C423   1.276       .  A
O414       Cu421   2.002       .  S
O414        C424   1.276       .  A
O415       Cu421   2.006       .  S
O415        C425   1.277       .  A
O416       Cu421   2.013       .  S
O416        C426   1.277       .  A
O417       Cu422   2.009       .  S
O417        C426   1.279       .  A
O418       Cu422   2.012       .  S
O418        C425   1.279       .  A
O419       Cu422   2.014       .  S
O419        C424   1.279       .  A
O420       Cu422   2.015       .  S
O420        C423   1.280       .  A
Cu421      Cu422   2.375       .  S
C423        C489   1.477       .  S
C424        C442   1.472       .  S
C425        C457   1.474       .  S
C426        C486   1.479       .  S
O427       Cu435   2.008       .  S
O427        C437   1.277       .  A
O428       Cu435   2.008       .  S
O428        C438   1.276       .  A
O429       Cu435   2.011       .  S
O429        C439   1.279       .  A
O430       Cu435   2.014       .  S
O430        C440   1.278       .  A
O431       Cu436   2.009       .  S
O431        C440   1.279       .  A
O432       Cu436   2.012       .  S
O432        C439   1.277       .  A
O433       Cu436   2.012       .  S
O433        C438   1.279       .  A
O434       Cu436   2.009       .  S
O434        C437   1.279       .  A
Cu435      Cu436   2.374       .  S
C437        C446   1.475       .  S
C438        C493   1.475       .  S
C439        C482   1.478       .  S
C440        C462   1.478       .  S
C441        C442   1.344       .  D
C441        H443   1.088       .  S
C442        H444   1.087       .  S
C445        C446   1.343       .  D
C445        H447   1.087       .  S
C446        H448   1.086       .  S
C449        C450   1.344       .  D
C449        H451   1.088       .  S
C450        H452   1.087       .  S
C453        C454   1.342       .  D
C453        H455   1.088       .  S
C454        H456   1.087       .  S
C457        C458   1.344       .  D
C457        H459   1.087       .  S
C458        H460   1.088       .  S
C461        C462   1.344       .  D
C461        H463   1.087       .  S
C462        H464   1.086       .  S
C465        C466   1.345       .  D
C465        H467   1.087       .  S
C466        H468   1.085       .  S
C469        C470   1.342       .  D
C469        H471   1.085       .  S
C470        H472   1.086       .  S
C473        C474   1.345       .  D
C473        H475   1.087       .  S
C474        H476   1.086       .  S
C477        C478   1.346       .  D
C477        H479   1.088       .  S
C478        H480   1.088       .  S
C481        C482   1.343       .  D
C481        H483   1.086       .  S
C482        H484   1.085       .  S
C485        C486   1.343       .  D
C485        H487   1.087       .  S
C486        H488   1.086       .  S
C489        C490   1.343       .  D
C489        H491   1.086       .  S
C490        H492   1.087       .  S
C493        C494   1.343       .  D
C493        H495   1.087       .  S
C494        H496   1.087       .  S
C497        C498   1.345       .  D
C497        H499   1.089       .  S
C498        H500   1.088       .  S
C501        C502   1.345       .  D
C501        H503   1.086       .  S
C502        H504   1.086       .  S
