geometry optimzed in LAMMPS
_audit_creation_date              2020-11-30 
_audit_creation_method            'lammps2cif' 
_symmetry_space_group_name_H-M    'P1' 
_symmetry_Int_Tables_number       1 
_symmetry_cell_setting            triclinic 
loop_ 
_symmetry_equiv_pos_as_xyz 
  x,y,z 
_cell_length_a                    30.661483528568038 
_cell_length_b                    31.852645777434798 
_cell_length_c                    31.80143008368421 
_cell_angle_alpha                 88.39233821058039 
_cell_angle_beta                  89.72774682656409 
_cell_angle_gamma                 89.61745162757346 
loop_ 
_atom_site_label 
_atom_site_type_symbol 
_atom_site_fract_x 
_atom_site_fract_y 
_atom_site_fract_z 
_atom_site_charge 
C1          C  0.50362164  0.25431309  0.52065991     0.01760
C2          C  0.00326830  0.25518257  0.47747455     0.01760
C3          C  0.24848716  0.00147835  0.47892283     0.01460
C4          C  0.24942509  0.49897200  0.52128256     0.01760
C5          C  0.13524606  0.27231815  0.64259559     0.43650
N6          N  0.16138085  0.24978870  0.70121302     0.02540
C7          C  0.33467865  0.32585555  0.81330654    -0.05340
H8          H  0.34812431  0.33144982  0.64254458     0.08030
C9          C  0.34727275  0.17020828  0.66445372    -0.05690
Co10       Co  0.22080355  0.31032225  0.74382880     0.74180
N11         N  0.30054138  0.31546029  0.69137885    -0.24870
Co12       Co  0.32424177  0.27180946  0.73813238     0.74070
C13         C  0.36908816  0.20420018  0.63943185     0.43750
N14         N  0.24159198  0.15054959  0.70615301     0.02160
N15         N  0.33743215  0.22959007  0.69348193     0.02260
N16         N  0.26811437  0.35583972  0.82025080    -0.45710
H17         H  0.16646580  0.33723196  0.64995502     0.08020
N18         N  0.26045791  0.32885078  0.69679376     0.02550
N19         N  0.34651299  0.22902075  0.78540091     0.02290
C20         C  0.37457561  0.20084436  0.84075851     0.43890
N21         N  0.20100580  0.16389643  0.70307301    -0.24320
C22         C  0.16523781  0.31677730  0.81853967    -0.05240
N23         N  0.13748181  0.23898443  0.66910332    -0.45430
N24         N  0.37561626  0.23559666  0.81534280    -0.45650
C25         C  0.13276437  0.29269194  0.84069736     0.43660
N26         N  0.26904476  0.32914724  0.78838077     0.02530
N27         N  0.20022890  0.16894214  0.79603951    -0.24340
N28         N  0.17561004  0.28879793  0.69846428    -0.24840
N29         N  0.23960535  0.15194641  0.79721788     0.02170
H30         H  0.14153122  0.15953001  0.83203623     0.08060
H31         H  0.33582994  0.14015102  0.83416072     0.08100
N32         N  0.30814796  0.31252400  0.78389201    -0.24890
N33         N  0.32755414  0.18946958  0.69726180    -0.24500
N34         N  0.16073846  0.25476820  0.79265361     0.02540
C35         C  0.27898859  0.36227789  0.64028252     0.43940
C36         C  0.18396156  0.14479550  0.66901356    -0.05750
N37         N  0.32851079  0.19168297  0.78973024    -0.24500
H38         H  0.34625896  0.13703503  0.65847548     0.08080
N39         N  0.24707642  0.35595884  0.66810983    -0.45720
H40         H  0.15103146  0.14873766  0.65772345     0.08070
C41         C  0.20338472  0.12229096  0.84865983     0.43770
C42         C  0.15979055  0.30609158  0.66223476    -0.05250
Co43       Co  0.17943313  0.20885257  0.74835074     0.73820
N44         N  0.25357642  0.12454995  0.67723111    -0.45440
C45         C  0.30890124  0.35436142  0.83766932     0.44040
N46         N  0.13022070  0.25434967  0.82280361    -0.45430
Co47       Co  0.28495985  0.16987559  0.74813443     0.73890
C48         C  0.34413156  0.17166772  0.82356938    -0.05750
C49         C  0.31581216  0.33522305  0.65571066    -0.05320
N50         N  0.18029217  0.29143029  0.78994622    -0.24840
N51         N  0.36081288  0.23935741  0.66011553    -0.45610
H52         H  0.36880307  0.31766218  0.81635832     0.08040
C53         C  0.17581219  0.15295175  0.82719469    -0.05730
Cl54       Cl  0.25228676  0.24017348  0.74484838    -0.48730
C55         C  0.22010597  0.11863372  0.65174293     0.43800
H56         H  0.17376857  0.34952288  0.82095241     0.08010
N57         N  0.24238106  0.12219144  0.82763445    -0.45440
C58         C  0.13370818  0.22181733  0.35757759     0.43650
N59         N  0.16104145  0.24762697  0.30084347     0.02540
C60         C  0.33368916  0.17400155  0.18211783    -0.05340
H61         H  0.34685845  0.16618587  0.35503252     0.08030
C62         C  0.34163874  0.32709464  0.33585256    -0.05690
Co63       Co  0.21984679  0.18867999  0.25359657     0.74180
N64         N  0.30007835  0.18175764  0.30563496    -0.24870
Co65       Co  0.32386140  0.22605622  0.25988586     0.74070
C66         C  0.36442450  0.29412328  0.36073515     0.43750
N67         N  0.23975575  0.34745189  0.29618671     0.02160
N68         N  0.33757161  0.26786544  0.30533072     0.02260
N69         N  0.26557751  0.14891962  0.17309928    -0.45710
H70         H  0.16389197  0.15678077  0.34591959     0.08020
N71         N  0.26034167  0.16815142  0.29963202     0.02550
N72         N  0.34503202  0.26979528  0.21335383     0.02290
C73         C  0.37228110  0.29922776  0.15822689     0.43890
N74         N  0.19962239  0.33377680  0.30071782    -0.24320
C75         C  0.15860713  0.18552088  0.18155200    -0.05240
N76         N  0.13679603  0.25682020  0.33353260    -0.45430
N77         N  0.37428398  0.26408617  0.18302449    -0.45650
C78         C  0.12201782  0.21009249  0.16648147     0.43660
N79         N  0.26792939  0.17181483  0.20767507     0.02530
N80         N  0.19703258  0.33137645  0.20760863    -0.24340
N81         N  0.17474143  0.20821689  0.30089824    -0.24840
N82         N  0.23665139  0.34727449  0.20505290     0.02170
H83         H  0.13816990  0.34066282  0.17193665     0.08060
H84         H  0.33227831  0.35946045  0.16662102     0.08100
N85         N  0.30764829  0.18629954  0.21301994    -0.24890
N86         N  0.32501422  0.30753696  0.30233586    -0.24500
N87         N  0.15778683  0.24649989  0.21013784     0.02540
C88         C  0.27850678  0.13465068  0.35627778     0.43940
C89         C  0.18316396  0.35231509  0.33565099    -0.05750
N90         N  0.32604054  0.30698338  0.20993986    -0.24500
H91         H  0.33778616  0.35989055  0.34254571     0.08080
N92         N  0.24695666  0.14087051  0.32817094    -0.45720
H93         H  0.15073625  0.34771655  0.34834540     0.08070
C94         C  0.20027673  0.37637599  0.15387150     0.43770
C95         C  0.15811118  0.18887393  0.33584882    -0.05250
Co96       Co  0.17774297  0.29026253  0.25497787     0.73820
N97         N  0.25193499  0.37346977  0.32478248    -0.45440
C98         C  0.30621241  0.15007535  0.15519536     0.44040
N99         N  0.12274795  0.24769526  0.18556913    -0.45430
Co100      Co  0.28252375  0.32822862  0.25273641     0.73890
C101        C  0.34111863  0.32773131  0.17631920    -0.05750
C102        C  0.31502179  0.16200149  0.34136621    -0.05320
N103        N  0.17781846  0.20981141  0.20886458    -0.24840
N104        N  0.36121868  0.25887672  0.33887549    -0.45610
H105        H  0.36781006  0.18166230  0.17851870     0.08040
C106        C  0.17230057  0.34733730  0.17669121    -0.05730
Cl107      Cl  0.25092314  0.25832674  0.25510421    -0.48730
C108        C  0.21914286  0.37890641  0.35158800     0.43800
H109        H  0.16548342  0.15247276  0.17782139     0.08010
N110        N  0.23974895  0.37581370  0.17355276    -0.45440
O111        O  0.03437945  0.39687395  0.97182821    -0.78940
O112        O  0.03998359  0.10261958  0.03041106    -0.78970
O113        O  0.04250838  0.02708159  0.92442917    -0.78980
O114        O  0.04578351  0.47552307  0.07716150    -0.78920
O115        O  0.07181965  0.03807583  0.98631621    -0.79040
O116        O  0.06977089  0.46034065  0.01348836    -0.78960
O117        O  0.01509000  0.06076659  0.08211242    -0.78940
O118        O  0.01504418  0.44333628  0.92109941    -0.78980
C119        C  0.03235906  0.40748856  0.93355404     1.10750
C120        C  0.03304735  0.09585050  0.06898268     1.10630
C121        C  0.07576331  0.03537875  0.94658577     1.10770
C122        C  0.07648347  0.46391337  0.05268323     1.10650
O123        O  0.50535816  0.40991175  0.04512435    -0.78950
O124        O  0.50609815  0.09146906  0.95795290    -0.79020
O125        O  0.42612479  0.47724903  0.94096257    -0.78960
O126        O  0.42885510  0.02725461  0.06573523    -0.78940
O127        O  0.45408591  0.08012402  0.02819436    -0.78990
O128        O  0.45116288  0.42161454  0.97437237    -0.78960
O129        O  0.45372674  0.44836984  0.06976374    -0.78910
O130        O  0.45131744  0.05529629  0.93764730    -0.78980
Co131      Co  0.01112710  0.44477997  0.99324184     1.51530
Co132      Co  0.01412756  0.05566097  0.00930602     1.51690
Co133      Co  0.98371860  0.50123857  0.93649658     1.51570
Co134      Co  0.98620856  0.00211156  0.06810143     1.51470
O135        O  0.98824488  0.00094088  0.00204072    -1.40880
C136        C  0.47133302  0.41297350  0.06623387     1.10670
C137        C  0.47055391  0.08985846  0.93916665     1.10760
C138        C  0.42183095  0.43955429  0.95160355     1.10700
C139        C  0.42353347  0.06357649  0.05061983     1.10670
C140        C  0.13786109  0.41128146  0.05800406     0.24790
C141        C  0.11845440  0.44876362  0.07175044    -0.23320
C142        C  0.13462956  0.46650488  0.10867700     0.19700
C143        C  0.16679358  0.44553062  0.13296749     0.24730
C144        C  0.18313800  0.40621473  0.12112533    -0.23260
C145        C  0.16940436  0.39008777  0.08266596     0.19630
F146        F  0.18317484  0.35144360  0.07114470    -0.13220
F147        F  0.12259883  0.39235679  0.02335496    -0.15580
F148        F  0.17837923  0.46136465  0.17046125    -0.15590
F149        F  0.11711401  0.50275620  0.12283333    -0.13220
C150        C  0.07000900  0.15132342  0.16588521     0.24790
C151        C  0.08430776  0.18980295  0.14778692    -0.23320
C152        C  0.07337196  0.20024500  0.10628493     0.19700
C153        C  0.05337218  0.17053148  0.08150023     0.24730
C154        C  0.04480814  0.12954315  0.09789576    -0.23260
C155        C  0.05073701  0.12117609  0.14101611     0.19630
F156        F  0.04165683  0.08276874  0.15835305    -0.13220
F157        F  0.07933191  0.14109876  0.20663740    -0.15580
F158        F  0.04513085  0.18116844  0.04063178    -0.15590
F159        F  0.08666664  0.23720559  0.08835048    -0.13220
C160        C  0.35329034  0.15224594  0.09089299     0.24790
C161        C  0.32328837  0.12984043  0.11672710    -0.23320
C162        C  0.32001118  0.08640108  0.11211918     0.19700
C163        C  0.34956824  0.06522061  0.08606143     0.24730
C164        C  0.38362872  0.08706542  0.06452219    -0.23260
C165        C  0.38322991  0.13115932  0.06523517     0.19630
F166        F  0.41458248  0.15373929  0.04474306    -0.13220
F167        F  0.35632720  0.19461330  0.09349483    -0.15580
F168        F  0.34722244  0.02269175  0.08513458    -0.15590
F169        F  0.29176777  0.06379164  0.13655643    -0.13220
C170        C  0.40726074  0.36740709  0.07097536     0.24790
C171        C  0.45007850  0.37531502  0.08308410    -0.23320
C172        C  0.47084293  0.34852088  0.11266799     0.19700
C173        C  0.44669463  0.31735179  0.13400609     0.24730
C174        C  0.40224057  0.31275733  0.12492615    -0.23260
C175        C  0.38375651  0.33557199  0.09101414     0.19630
F176        F  0.34096533  0.33095014  0.08133363    -0.13220
F177        F  0.38728579  0.39257978  0.04182266    -0.15580
F178        F  0.46492210  0.29581731  0.16698434    -0.15590
F179        F  0.51276515  0.35545711  0.12398354    -0.13220
C180        C  0.12396325  0.34324379  0.89603352     0.24790
C181        C  0.10380170  0.31372793  0.87048469    -0.23320
C182        C  0.05839954  0.31585943  0.86466351     0.19700
C183        C  0.03401266  0.34818323  0.88317835     0.24730
C184        C  0.05543062  0.37955754  0.90542228    -0.23260
C185        C  0.10043413  0.37660342  0.91165365     0.19630
F186        F  0.12154752  0.40584229  0.93416169    -0.13220
F187        F  0.16761774  0.34152029  0.90328395    -0.15580
F188        F  0.98991001  0.34864421  0.87983878    -0.15590
F189        F  0.03820786  0.28800190  0.83991701    -0.13220
C190        C  0.15029584  0.07044218  0.94355876     0.24790
C191        C  0.11742419  0.04708915  0.92401417    -0.23320
C192        C  0.12139624  0.04090068  0.88026636     0.19700
C193        C  0.15398119  0.06119453  0.85636447     0.24730
C194        C  0.18389293  0.08800104  0.87522892    -0.23260
C195        C  0.18290548  0.09097284  0.91930656     0.19630
F196        F  0.21090971  0.11704391  0.93848161    -0.13220
F197        F  0.14877003  0.07661802  0.98559581    -0.15580
F198        F  0.15324928  0.05837617  0.81382405    -0.15590
F199        F  0.09162838  0.01780934  0.85966658    -0.13220
C200        C  0.47168582  0.15130591  0.88912874     0.24790
C201        C  0.45051294  0.12787867  0.92114310    -0.23320
C202        C  0.40793979  0.13845314  0.93310155     0.19700
C203        C  0.38515346  0.16943317  0.91059269     0.24730
C204        C  0.40412039  0.18881972  0.87484987    -0.23260
C205        C  0.44831742  0.18166084  0.86568784     0.19630
F206        F  0.46682146  0.19948252  0.83072569    -0.13220
F207        F  0.51304828  0.14136156  0.87743828    -0.15580
F208        F  0.34250822  0.17640274  0.92008397    -0.15590
F209        F  0.38729216  0.11649416  0.96442585    -0.13220
C210        C  0.31885691  0.38594192  0.90987193     0.24790
C211        C  0.33045314  0.38336675  0.86700916    -0.23320
C212        C  0.37090024  0.39987752  0.85394044     0.19700
C213        C  0.40049541  0.41476479  0.88283357     0.24730
C214        C  0.39021302  0.41617150  0.92587483    -0.23260
C215        C  0.34810403  0.40349980  0.93898643     0.19630
F216        F  0.33498258  0.40855380  0.97926195    -0.13220
F217        F  0.28008166  0.37045155  0.92368731    -0.15580
F218        F  0.43965321  0.42885836  0.86828905    -0.15590
F219        F  0.38286215  0.39994207  0.81272680    -0.13220
C220        C  0.26610756  0.42860886  0.39035012     0.24790
C221        C  0.22594720  0.40668834  0.38809537    -0.23320
C222        C  0.19507689  0.41241740  0.42033048     0.19700
C223        C  0.20341756  0.44099130  0.45247899     0.24730
C224        C  0.24292792  0.46361201  0.45295076    -0.23260
C225        C  0.27445516  0.45582389  0.42248014     0.19630
F226        F  0.31295414  0.97671172  0.42235407    -0.13220
F227        F  0.29748691  0.42581122  0.36030540    -0.15580
F228        F  0.17191460  0.44862034  0.48143517    -0.15590
F229        F  0.15657306  0.39170480  0.42003779    -0.13220
C230        C  0.23066973  0.08279580  0.39418486     0.24790
C231        C  0.27093530  0.10463935  0.39241366    -0.23320
C232        C  0.30163700  0.09615044  0.42431880     0.19700
C233        C  0.29317293  0.06475500  0.45544494     0.24730
C234        C  0.25370909  0.04207361  0.45517749    -0.23260
C235        C  0.22220602  0.05273590  0.42531937     0.19630
F236        F  0.18380311  0.03174344  0.42448545    -0.13220
F237        F  0.19944701  0.08828904  0.36440746    -0.15580
F238        F  0.32462936  0.05443515  0.48384880    -0.15590
F239        F  0.34023131  0.11672119  0.42446857    -0.13220
C240        C  0.22303844  0.44625387  0.57322027     0.24790
C241        C  0.25522315  0.45815408  0.54443976    -0.23320
C242        C  0.29516956  0.43578695  0.54403412     0.19700
C243        C  0.30339859  0.40333851  0.57413917     0.24730
C244        C  0.27178080  0.39326427  0.60491009    -0.23260
C245        C  0.23098628  0.41475544  0.60302654     0.19630
F246        F  0.19856858  0.40737660  0.63142191    -0.13220
F247        F  0.18423405  0.46706893  0.57413973    -0.15580
F248        F  0.34251668  0.38319096  0.57412152    -0.15590
F249        F  0.32712635  0.44728683  0.51646091    -0.13220
C250        C  0.20396202  0.05888352  0.54973282     0.24790
C251        C  0.24386691  0.03650859  0.54781247    -0.23320
C252        C  0.27571571  0.04377125  0.57775522     0.19700
C253        C  0.26737271  0.07019536  0.61071423     0.24730
C254        C  0.22676954  0.09163809  0.61451525    -0.23260
C255        C  0.19552074  0.08650397  0.58285039     0.19630
F256        F  0.15661482  0.10690953  0.58456356    -0.13220
F257        F  0.17221853  0.05186313  0.52123322    -0.15580
F258        F  0.29929758  0.07280808  0.63994031    -0.15590
F259        F  0.31459400  0.02311523  0.57652345    -0.13220
C260        C  0.47462537  0.27766384  0.40462350     0.24790
C261        C  0.46684483  0.27249511  0.44885290    -0.23320
C262        C  0.42545495  0.28656908  0.46349975     0.19700
C263        C  0.39182665  0.29730055  0.43493474     0.24730
C264        C  0.39974322  0.29783574  0.39147115    -0.23260
C265        C  0.44184197  0.29032984  0.37703791     0.19630
F266        F  0.45063995  0.29222012  0.33507642    -0.13220
F267        F  0.51386924  0.27060662  0.38634096    -0.15580
F268        F  0.35115833  0.30559264  0.44971002    -0.15590
F269        F  0.41683344  0.29073013  0.50492028    -0.13220
C270        C  0.04604093  0.20121976  0.43802283     0.24790
C271        C  0.04428017  0.24101005  0.45634373    -0.23320
C272        C  0.07842437  0.26939132  0.44877802     0.19700
C273        C  0.11180384  0.25951295  0.42089179     0.24730
C274        C  0.11041906  0.22222221  0.39818865    -0.23260
C275        C  0.07885205  0.19196784  0.40866842     0.19630
F276        F  0.07674097  0.15585216  0.38713832    -0.13220
F277        F  0.01331746  0.17336272  0.44501107    -0.15580
F278        F  0.14310313  0.28860599  0.41260421    -0.15590
F279        F  0.07668020  0.30865553  0.46414352    -0.13220
C280        C  0.40499329  0.19295475  0.56814049     0.24790
C281        C  0.40718503  0.20472801  0.61043480    -0.23320
C282        C  0.44160629  0.23047469  0.62236983     0.19700
C283        C  0.46859982  0.24943379  0.59264138     0.24730
C284        C  0.46762157  0.23831274  0.54987706    -0.23260
C285        C  0.43625504  0.20808953  0.53843288     0.19630
F286        F  0.43495977  0.19407650  0.49857795    -0.13220
F287        F  0.37198119  0.16827788  0.55533469    -0.15580
F288        F  0.49469056  0.28013891  0.60664010    -0.15590
F289        F  0.44633755  0.24128012  0.66318346    -0.13220
C290        C  0.09127548  0.30614681  0.58390685     0.24790
C291        C  0.11145531  0.27051827  0.60235472    -0.23320
C292        C  0.10307859  0.23074568  0.58572693     0.19700
C293        C  0.07015959  0.22578072  0.55639909     0.24730
C294        C  0.04632878  0.26067303  0.54179253    -0.23260
C295        C  0.05912092  0.30124080  0.55322356     0.19630
F296        F  0.03634184  0.33543098  0.53900106    -0.13220
F297        F  0.09919520  0.34500336  0.59841730    -0.15580
F298        F  0.05930653  0.18658468  0.54456355    -0.15590
F299        F  0.12484346  0.19600821  0.59984714    -0.13220
C300        C  0.50362164  0.75431311  0.52065991     0.01760
C301        C  0.00326829  0.75518259  0.47747455     0.01760
C302        C  0.24848717  0.50147835  0.47892282     0.01460
C303        C  0.24942508  0.99897199  0.52128257     0.01760
C304        C  0.13524606  0.77231815  0.64259559     0.43650
N305        N  0.16138084  0.74978870  0.70121302     0.02540
C306        C  0.33467863  0.82585555  0.81330656    -0.05340
H307        H  0.34812431  0.83144983  0.64254460     0.08030
C308        C  0.34727276  0.67020829  0.66445373    -0.05690
Co309      Co  0.22080353  0.81032224  0.74382881     0.74180
N310        N  0.30054137  0.81546030  0.69137887    -0.24870
Co311      Co  0.32424176  0.77180946  0.73813240     0.74070
C312        C  0.36908818  0.70420020  0.63943187     0.43750
N313        N  0.24159198  0.65054959  0.70615301     0.02160
N314        N  0.33743215  0.72959007  0.69348195     0.02260
N315        N  0.26811435  0.85583972  0.82025081    -0.45710
H316        H  0.16646580  0.83723196  0.64995503     0.08020
N317        N  0.26045790  0.82885079  0.69679377     0.02550
N318        N  0.34651297  0.72902075  0.78540093     0.02290
C319        C  0.37457560  0.70084436  0.84075852     0.43890
N320        N  0.20100580  0.66389643  0.70307300    -0.24320
C321        C  0.16523779  0.81677729  0.81853967    -0.05240
N322        N  0.13748181  0.73898442  0.66910332    -0.45430
N323        N  0.37561625  0.73559666  0.81534282    -0.45650
C324        C  0.13276435  0.79269192  0.84069736     0.43660
N325        N  0.26904475  0.82914724  0.78838078     0.02530
N326        N  0.20022890  0.66894213  0.79603950    -0.24340
N327        N  0.17561003  0.78879793  0.69846428    -0.24840
N328        N  0.23960535  0.65194640  0.79721788     0.02170
H329        H  0.14153121  0.65952999  0.83203622     0.08060
H330        H  0.33582993  0.64015101  0.83416072     0.08100
N331        N  0.30814795  0.81252399  0.78389202    -0.24890
N332        N  0.32755414  0.68946959  0.69726180    -0.24500
N333        N  0.16073845  0.75476819  0.79265360     0.02540
C334        C  0.27898858  0.86227789  0.64028253     0.43940
C335        C  0.18396157  0.64479550  0.66901355    -0.05750
N336        N  0.32851078  0.69168297  0.78973024    -0.24500
H337        H  0.34625898  0.63703504  0.65847549     0.08080
N338        N  0.24707641  0.85595884  0.66810984    -0.45720
H339        H  0.15103147  0.64873766  0.65772344     0.08070
C340        C  0.20338471  0.62229096  0.84865982     0.43770
C341        C  0.15979054  0.80609158  0.66223476    -0.05250
Co342      Co  0.17943312  0.70885256  0.74835074     0.73820
N343        N  0.25357642  0.62454995  0.67723110    -0.45440
C344        C  0.30890121  0.85436142  0.83766934     0.44040
N345        N  0.13022069  0.75434965  0.82280361    -0.45430
Co346      Co  0.28495984  0.66987559  0.74813443     0.73890
C347        C  0.34413155  0.67166771  0.82356939    -0.05750
C348        C  0.31581216  0.83522305  0.65571068    -0.05320
N349        N  0.18029216  0.79143028  0.78994622    -0.24840
N350        N  0.36081289  0.73935742  0.66011555    -0.45610
H351        H  0.36880304  0.81766218  0.81635834     0.08040
C352        C  0.17581218  0.65295174  0.82719468    -0.05730
Cl353      Cl  0.25228675  0.74017348  0.74484839    -0.48730
C354        C  0.22010598  0.61863372  0.65174292     0.43800
H355        H  0.17376855  0.84952286  0.82095242     0.08010
N356        N  0.24238105  0.62219143  0.82763445    -0.45440
C357        C  0.13370817  0.72181734  0.35757759     0.43650
N358        N  0.16104145  0.74762698  0.30084347     0.02540
C359        C  0.33368916  0.67400156  0.18211783    -0.05340
H360        H  0.34685846  0.66618588  0.35503252     0.08030
C361        C  0.34163873  0.82709465  0.33585256    -0.05690
Co362      Co  0.21984679  0.68868000  0.25359657     0.74180
N363        N  0.30007835  0.68175765  0.30563496    -0.24870
Co364      Co  0.32386140  0.72605622  0.25988586     0.74070
C365        C  0.36442450  0.79412329  0.36073515     0.43750
N366        N  0.23975575  0.84745190  0.29618671     0.02160
N367        N  0.33757162  0.76786545  0.30533072     0.02260
N368        N  0.26557752  0.64891962  0.17309928    -0.45710
H369        H  0.16389196  0.65678078  0.34591959     0.08020
N370        N  0.26034167  0.66815143  0.29963203     0.02550
N371        N  0.34503202  0.76979529  0.21335383     0.02290
C372        C  0.37228110  0.79922777  0.15822689     0.43890
N373        N  0.19962239  0.83377681  0.30071781    -0.24320
C374        C  0.15860713  0.68552088  0.18155201    -0.05240
N375        N  0.13679602  0.75682021  0.33353260    -0.45430
N376        N  0.37428398  0.76408618  0.18302449    -0.45650
C377        C  0.12201782  0.71009249  0.16648148     0.43660
N378        N  0.26792939  0.67181483  0.20767508     0.02530
N379        N  0.19703258  0.83137646  0.20760862    -0.24340
N380        N  0.17474143  0.70821690  0.30089824    -0.24840
N381        N  0.23665139  0.84727450  0.20505290     0.02170
H382        H  0.13816990  0.84066283  0.17193665     0.08060
H383        H  0.33227831  0.85946045  0.16662101     0.08100
N384        N  0.30764829  0.68629955  0.21301994    -0.24890
N385        N  0.32501422  0.80753697  0.30233586    -0.24500
N386        N  0.15778683  0.74649990  0.21013784     0.02540
C387        C  0.27850678  0.63465069  0.35627779     0.43940
C388        C  0.18316396  0.85231509  0.33565099    -0.05750
N389        N  0.32604054  0.80698338  0.20993985    -0.24500
H390        H  0.33778615  0.85989056  0.34254571     0.08080
N391        N  0.24695666  0.64087052  0.32817094    -0.45720
H392        H  0.15073626  0.84771655  0.34834540     0.08070
C393        C  0.20027673  0.87637599  0.15387150     0.43770
C394        C  0.15811118  0.68887394  0.33584882    -0.05250
Co395      Co  0.17774297  0.79026254  0.25497786     0.73820
N396        N  0.25193499  0.87346978  0.32478248    -0.45440
C397        C  0.30621241  0.65007535  0.15519536     0.44040
N398        N  0.12274795  0.74769526  0.18556913    -0.45430
Co399      Co  0.28252375  0.82822863  0.25273641     0.73890
C400        C  0.34111863  0.82773132  0.17631919    -0.05750
C401        C  0.31502179  0.66200150  0.34136621    -0.05320
N402        N  0.17781847  0.70981141  0.20886458    -0.24840
N403        N  0.36121868  0.75887673  0.33887549    -0.45610
H404        H  0.36781007  0.68166231  0.17851870     0.08040
C405        C  0.17230057  0.84733731  0.17669121    -0.05730
Cl406      Cl  0.25092314  0.75832674  0.25510421    -0.48730
C407        C  0.21914286  0.87890642  0.35158800     0.43800
H408        H  0.16548343  0.65247277  0.17782139     0.08010
N409        N  0.23974895  0.87581370  0.17355276    -0.45440
O410        O  0.03437945  0.89687395  0.97182821    -0.78940
O411        O  0.03998359  0.60261958  0.03041107    -0.78970
O412        O  0.04250838  0.52708160  0.92442917    -0.78980
O413        O  0.04578351  0.97552308  0.07716150    -0.78920
O414        O  0.07181964  0.53807583  0.98631622    -0.79040
O415        O  0.06977089  0.96034065  0.01348835    -0.78960
O416        O  0.01509000  0.56076659  0.08211243    -0.78940
O417        O  0.01504419  0.94333628  0.92109940    -0.78980
C418        C  0.03235906  0.90748855  0.93355404     1.10750
C419        C  0.03304735  0.59585050  0.06898269     1.10630
C420        C  0.07576331  0.53537875  0.94658578     1.10770
C421        C  0.07648347  0.96391337  0.05268322     1.10650
O422        O  0.50535815  0.90991176  0.04512434    -0.78950
O423        O  0.50609814  0.59146905  0.95795291    -0.79020
O424        O  0.42612479  0.97724904  0.94096256    -0.78960
O425        O  0.42885510  0.52725461  0.06573524    -0.78940
O426        O  0.45408591  0.58012401  0.02819437    -0.78990
O427        O  0.45116287  0.92161455  0.97437236    -0.78960
O428        O  0.45372674  0.94836984  0.06976373    -0.78910
O429        O  0.45131744  0.55529628  0.93764731    -0.78980
Co430      Co  0.01112710  0.94477997  0.99324184     1.51530
Co431      Co  0.01412755  0.55566097  0.00930603     1.51690
Co432      Co  0.98371861  0.00123857  0.93649658     1.51570
Co433      Co  0.98620856  0.50211156  0.06810144     1.51470
O434        O  0.98824488  0.50094088  0.00204072    -1.40880
C435        C  0.47133302  0.91297351  0.06623386     1.10670
C436        C  0.47055390  0.58985846  0.93916665     1.10760
C437        C  0.42183094  0.93955429  0.95160354     1.10700
C438        C  0.42353347  0.56357649  0.05061984     1.10670
C439        C  0.13786109  0.91128146  0.05800405     0.24790
C440        C  0.11845440  0.94876362  0.07175043    -0.23320
C441        C  0.13462956  0.96650488  0.10867699     0.19700
C442        C  0.16679358  0.94553062  0.13296748     0.24730
C443        C  0.18313801  0.90621474  0.12112532    -0.23260
C444        C  0.16940436  0.89008778  0.08266595     0.19630
F445        F  0.18317484  0.85144360  0.07114470    -0.13220
F446        F  0.12259883  0.89235679  0.02335496    -0.15580
F447        F  0.17837924  0.96136465  0.17046124    -0.15590
F448        F  0.11711401  0.00275620  0.12283332    -0.13220
C449        C  0.07000901  0.65132342  0.16588522     0.24790
C450        C  0.08430776  0.68980295  0.14778693    -0.23320
C451        C  0.07337196  0.70024500  0.10628494     0.19700
C452        C  0.05337217  0.67053148  0.08150024     0.24730
C453        C  0.04480813  0.62954315  0.09789577    -0.23260
C454        C  0.05073701  0.62117609  0.14101612     0.19630
F455        F  0.04165684  0.58276874  0.15835306    -0.13220
F456        F  0.07933192  0.64109875  0.20663740    -0.15580
F457        F  0.04513084  0.68116843  0.04063179    -0.15590
F458        F  0.08666662  0.73720559  0.08835049    -0.13220
C459        C  0.35329034  0.65224594  0.09089300     0.24790
C460        C  0.32328837  0.62984043  0.11672710    -0.23320
C461        C  0.32001118  0.58640108  0.11211919     0.19700
C462        C  0.34956825  0.56522061  0.08606144     0.24730
C463        C  0.38362872  0.58706542  0.06452220    -0.23260
C464        C  0.38322991  0.63115932  0.06523517     0.19630
F465        F  0.41458248  0.65373929  0.04474306    -0.13220
F466        F  0.35632720  0.69461330  0.09349483    -0.15580
F467        F  0.34722244  0.52269175  0.08513459    -0.15590
F468        F  0.29176777  0.56379164  0.13655644    -0.13220
C469        C  0.40726075  0.86740708  0.07097535     0.24790
C470        C  0.45007851  0.87531502  0.08308410    -0.23320
C471        C  0.47084293  0.84852089  0.11266800     0.19700
C472        C  0.44669464  0.81735181  0.13400610     0.24730
C473        C  0.40224058  0.81275733  0.12492615    -0.23260
C474        C  0.38375652  0.83557198  0.09101414     0.19630
F475        F  0.34096534  0.83095012  0.08133362    -0.13220
F476        F  0.38728580  0.89257976  0.04182264    -0.15580
F477        F  0.46492210  0.79581734  0.16698436    -0.15590
F478        F  0.51276514  0.85545713  0.12398355    -0.13220
C479        C  0.12396323  0.84324375  0.89603354     0.24790
C480        C  0.10380168  0.81372790  0.87048469    -0.23320
C481        C  0.05839952  0.81585942  0.86466349     0.19700
C482        C  0.03401265  0.84818323  0.88317834     0.24730
C483        C  0.05543062  0.87955753  0.90542228    -0.23260
C484        C  0.10043413  0.87660339  0.91165366     0.19630
F485        F  0.12154752  0.90584225  0.93416171    -0.13220
F486        F  0.16761773  0.84152023  0.90328398    -0.15580
F487        F  0.98991000  0.84864423  0.87983875    -0.15590
F488        F  0.03820784  0.78800191  0.83991698    -0.13220
C489        C  0.15029583  0.57044219  0.94355876     0.24790
C490        C  0.11742419  0.54708915  0.92401417    -0.23320
C491        C  0.12139624  0.54090067  0.88026637     0.19700
C492        C  0.15398119  0.56119451  0.85636447     0.24730
C493        C  0.18389292  0.58800104  0.87522892    -0.23260
C494        C  0.18290547  0.59097285  0.91930656     0.19630
F495        F  0.21090969  0.61704393  0.93848160    -0.13220
F496        F  0.14877002  0.57661804  0.98559581    -0.15580
F497        F  0.15324928  0.55837614  0.81382405    -0.15590
F498        F  0.09162839  0.51780931  0.85966659    -0.13220
C499        C  0.47168581  0.65130591  0.88912875     0.24790
C500        C  0.45051294  0.62787866  0.92114310    -0.23320
C501        C  0.40793978  0.63845313  0.93310156     0.19700
C502        C  0.38515345  0.66943315  0.91059270     0.24730
C503        C  0.40412038  0.68881971  0.87484988    -0.23260
C504        C  0.44831741  0.68166084  0.86568785     0.19630
F505        F  0.46682144  0.69948252  0.83072571    -0.13220
F506        F  0.51304828  0.64136156  0.87743829    -0.15580
F507        F  0.34250821  0.67640272  0.92008398    -0.15590
F508        F  0.38729215  0.61649414  0.96442585    -0.13220
C509        C  0.31885689  0.88594192  0.90987194     0.24790
C510        C  0.33045312  0.88336675  0.86700917    -0.23320
C511        C  0.37090021  0.89987753  0.85394044     0.19700
C512        C  0.40049539  0.91476480  0.88283356     0.24730
C513        C  0.39021301  0.91617151  0.92587483    -0.23260
C514        C  0.34810402  0.90349981  0.93898643     0.19630
F515        F  0.33498258  0.90855381  0.97926196    -0.13220
F516        F  0.28008165  0.87045155  0.92368733    -0.15580
F517        F  0.43965319  0.92885838  0.86828904    -0.15590
F518        F  0.38286211  0.89994208  0.81272680    -0.13220
C519        C  0.26610756  0.92860886  0.39035012     0.24790
C520        C  0.22594720  0.90668834  0.38809537    -0.23320
C521        C  0.19507689  0.91241740  0.42033048     0.19700
C522        C  0.20341756  0.94099129  0.45247899     0.24730
C523        C  0.24292792  0.96361200  0.45295077    -0.23260
C524        C  0.27445516  0.95582389  0.42248014     0.19630
F525        F  0.31295414  0.47671173  0.42235406    -0.13220
F526        F  0.29748692  0.92581123  0.36030541    -0.15580
F527        F  0.17191460  0.94862034  0.48143517    -0.15590
F528        F  0.15657306  0.89170480  0.42003779    -0.13220
C529        C  0.23066973  0.58279581  0.39418486     0.24790
C530        C  0.27093530  0.60463935  0.39241366    -0.23320
C531        C  0.30163700  0.59615044  0.42431880     0.19700
C532        C  0.29317293  0.56475500  0.45544493     0.24730
C533        C  0.25370909  0.54207361  0.45517748    -0.23260
C534        C  0.22220603  0.55273591  0.42531936     0.19630
F535        F  0.18380311  0.53174344  0.42448544    -0.13220
F536        F  0.19944701  0.58828905  0.36440746    -0.15580
F537        F  0.32462936  0.55443515  0.48384879    -0.15590
F538        F  0.34023131  0.61672119  0.42446857    -0.13220
C539        C  0.22303843  0.94625386  0.57322028     0.24790
C540        C  0.25522315  0.95815407  0.54443977    -0.23320
C541        C  0.29516956  0.93578694  0.54403413     0.19700
C542        C  0.30339859  0.90333851  0.57413918     0.24730
C543        C  0.27178080  0.89326427  0.60491010    -0.23260
C544        C  0.23098627  0.91475544  0.60302654     0.19630
F545        F  0.19856857  0.90737659  0.63142191    -0.13220
F546        F  0.18423404  0.96706893  0.57413973    -0.15580
F547        F  0.34251668  0.88319096  0.57412153    -0.15590
F548        F  0.32712635  0.94728683  0.51646092    -0.13220
C549        C  0.20396203  0.55888352  0.54973281     0.24790
C550        C  0.24386692  0.53650859  0.54781246    -0.23320
C551        C  0.27571572  0.54377126  0.57775520     0.19700
C552        C  0.26737272  0.57019538  0.61071421     0.24730
C553        C  0.22676955  0.59163810  0.61451524    -0.23260
C554        C  0.19552075  0.58650397  0.58285038     0.19630
F555        F  0.15661482  0.60690953  0.58456355    -0.13220
F556        F  0.17221853  0.55186313  0.52123322    -0.15580
F557        F  0.29929760  0.57280811  0.63994028    -0.15590
F558        F  0.31459401  0.52311525  0.57652343    -0.13220
C559        C  0.47462537  0.77766391  0.40462351     0.24790
C560        C  0.46684482  0.77249514  0.44885291    -0.23320
C561        C  0.42545492  0.78656907  0.46349975     0.19700
C562        C  0.39182663  0.79730054  0.43493475     0.24730
C563        C  0.39974321  0.79783576  0.39147115    -0.23260
C564        C  0.44184197  0.79032990  0.37703792     0.19630
F565        F  0.45063996  0.79222021  0.33507643    -0.13220
F566        F  0.51386925  0.77060674  0.38634097    -0.15580
F567        F  0.35115830  0.80559258  0.44971002    -0.15590
F568        F  0.41683340  0.79073009  0.50492029    -0.13220
C569        C  0.04604090  0.70121978  0.43802281     0.24790
C570        C  0.04428015  0.74101006  0.45634372    -0.23320
C571        C  0.07842437  0.76939132  0.44877803     0.19700
C572        C  0.11180384  0.75951295  0.42089179     0.24730
C573        C  0.11041904  0.72222222  0.39818864    -0.23260
C574        C  0.07885202  0.69196785  0.40866840     0.19630
F575        F  0.07674093  0.65585218  0.38713829    -0.13220
F576        F  0.01331742  0.67336275  0.44501104    -0.15580
F577        F  0.14310314  0.78860599  0.41260422    -0.15590
F578        F  0.07668021  0.80865553  0.46414353    -0.13220
C579        C  0.40499332  0.69295475  0.56814052     0.24790
C580        C  0.40718505  0.70472804  0.61043482    -0.23320
C581        C  0.44160629  0.73047475  0.62236983     0.19700
C582        C  0.46859981  0.74943384  0.59264137     0.24730
C583        C  0.46762157  0.73831277  0.54987706    -0.23260
C584        C  0.43625506  0.70808953  0.53843290     0.19630
F585        F  0.43495980  0.69407647  0.49857797    -0.13220
F586        F  0.37198123  0.66827785  0.55533473    -0.15580
F587        F  0.49469053  0.78013899  0.60664007    -0.15590
F588        F  0.44633754  0.74128019  0.66318346    -0.13220
C589        C  0.09127548  0.80614682  0.58390685     0.24790
C590        C  0.11145531  0.77051828  0.60235471    -0.23320
C591        C  0.10307859  0.73074569  0.58572692     0.19700
C592        C  0.07015959  0.72578073  0.55639909     0.24730
C593        C  0.04632878  0.76067304  0.54179252    -0.23260
C594        C  0.05912092  0.80124081  0.55322356     0.19630
F595        F  0.03634185  0.83543099  0.53900106    -0.13220
F596        F  0.09919520  0.84500337  0.59841730    -0.15580
F597        F  0.05930653  0.68658469  0.54456354    -0.15590
F598        F  0.12484345  0.69600822  0.59984713    -0.13220
C599        C  0.00362164  0.25431309  0.52065991     0.01760
C600        C  0.50326830  0.25518257  0.47747455     0.01760
C601        C  0.74848716  0.00147835  0.47892282     0.01460
C602        C  0.74942508  0.49897200  0.52128257     0.01760
C603        C  0.63524606  0.27231815  0.64259559     0.43650
N604        N  0.66138084  0.24978870  0.70121302     0.02540
C605        C  0.83467864  0.32585555  0.81330655    -0.05340
H606        H  0.84812431  0.33144983  0.64254458     0.08030
C607        C  0.84727275  0.17020828  0.66445372    -0.05690
Co608      Co  0.72080354  0.31032225  0.74382881     0.74180
N609        N  0.80054138  0.31546030  0.69137885    -0.24870
Co610      Co  0.82424177  0.27180946  0.73813238     0.74070
C611        C  0.86908816  0.20420018  0.63943185     0.43750
N612        N  0.74159198  0.15054959  0.70615301     0.02160
N613        N  0.83743215  0.22959007  0.69348193     0.02260
N614        N  0.76811437  0.35583972  0.82025081    -0.45710
H615        H  0.66646580  0.33723196  0.64995503     0.08020
N616        N  0.76045791  0.32885079  0.69679376     0.02550
N617        N  0.84651298  0.22902075  0.78540091     0.02290
C618        C  0.87457561  0.20084436  0.84075850     0.43890
N619        N  0.70100580  0.16389643  0.70307301    -0.24320
C620        C  0.66523781  0.31677730  0.81853967    -0.05240
N621        N  0.63748180  0.23898442  0.66910332    -0.45430
N622        N  0.87561626  0.23559666  0.81534280    -0.45650
C623        C  0.63276437  0.29269193  0.84069737     0.43660
N624        N  0.76904476  0.32914724  0.78838077     0.02530
N625        N  0.70022890  0.16894213  0.79603950    -0.24340
N626        N  0.67561003  0.28879793  0.69846428    -0.24840
N627        N  0.73960535  0.15194641  0.79721788     0.02170
H628        H  0.64153122  0.15953000  0.83203623     0.08060
H629        H  0.83582994  0.14015102  0.83416072     0.08100
N630        N  0.80814796  0.31252400  0.78389201    -0.24890
N631        N  0.82755413  0.18946958  0.69726179    -0.24500
N632        N  0.66073846  0.25476820  0.79265361     0.02540
C633        C  0.77898858  0.36227790  0.64028252     0.43940
C634        C  0.68396156  0.14479550  0.66901356    -0.05750
N635        N  0.82851079  0.19168297  0.78973023    -0.24500
H636        H  0.84625896  0.13703504  0.65847548     0.08080
N637        N  0.74707642  0.35595884  0.66810983    -0.45720
H638        H  0.65103146  0.14873766  0.65772345     0.08070
C639        C  0.70338472  0.12229096  0.84865983     0.43770
C640        C  0.65979054  0.30609158  0.66223476    -0.05250
Co641      Co  0.67943313  0.20885257  0.74835074     0.73820
N642        N  0.75357642  0.12454995  0.67723111    -0.45440
C643        C  0.80890124  0.35436143  0.83766932     0.44040
N644        N  0.63022070  0.25434966  0.82280362    -0.45430
Co645      Co  0.78495985  0.16987559  0.74813443     0.73890
C646        C  0.84413156  0.17166771  0.82356938    -0.05750
C647        C  0.81581216  0.33522305  0.65571066    -0.05320
N648        N  0.68029217  0.29143028  0.78994623    -0.24840
N649        N  0.86081288  0.23935741  0.66011553    -0.45610
H650        H  0.86880306  0.31766218  0.81635832     0.08040
C651        C  0.67581219  0.15295175  0.82719469    -0.05730
Cl652      Cl  0.75228676  0.24017348  0.74484838    -0.48730
C653        C  0.72010597  0.11863372  0.65174293     0.43800
H654        H  0.67376857  0.34952287  0.82095242     0.08010
N655        N  0.74238106  0.12219144  0.82763445    -0.45440
C656        C  0.63370818  0.22181734  0.35757760     0.43650
N657        N  0.66104145  0.24762697  0.30084347     0.02540
C658        C  0.83368916  0.17400155  0.18211783    -0.05340
H659        H  0.84685846  0.16618587  0.35503252     0.08030
C660        C  0.84163874  0.32709464  0.33585256    -0.05690
Co661      Co  0.71984680  0.18867999  0.25359657     0.74180
N662        N  0.80007835  0.18175764  0.30563496    -0.24870
Co663      Co  0.82386141  0.22605622  0.25988586     0.74070
C664        C  0.86442450  0.29412328  0.36073515     0.43750
N665        N  0.73975576  0.34745189  0.29618671     0.02160
N666        N  0.83757162  0.26786544  0.30533072     0.02260
N667        N  0.76557751  0.14891962  0.17309928    -0.45710
H668        H  0.66389198  0.15678078  0.34591960     0.08020
N669        N  0.76034167  0.16815142  0.29963203     0.02550
N670        N  0.84503202  0.26979528  0.21335383     0.02290
C671        C  0.87228110  0.29922776  0.15822689     0.43890
N672        N  0.69962239  0.33377680  0.30071782    -0.24320
C673        C  0.65860713  0.18552088  0.18155201    -0.05240
N674        N  0.63679603  0.25682020  0.33353260    -0.45430
N675        N  0.87428398  0.26408617  0.18302449    -0.45650
C676        C  0.62201782  0.21009248  0.16648148     0.43660
N677        N  0.76792939  0.17181483  0.20767508     0.02530
N678        N  0.69703259  0.33137645  0.20760863    -0.24340
N679        N  0.67474144  0.20821689  0.30089824    -0.24840
N680        N  0.73665139  0.34727449  0.20505290     0.02170
H681        H  0.63816990  0.34066282  0.17193665     0.08060
H682        H  0.83227831  0.35946045  0.16662101     0.08100
N683        N  0.80764829  0.18629954  0.21301994    -0.24890
N684        N  0.82501422  0.30753696  0.30233586    -0.24500
N685        N  0.65778684  0.24649989  0.21013784     0.02540
C686        C  0.77850679  0.13465068  0.35627779     0.43940
C687        C  0.68316396  0.35231509  0.33565099    -0.05750
N688        N  0.82604054  0.30698338  0.20993986    -0.24500
H689        H  0.83778616  0.35989055  0.34254571     0.08080
N690        N  0.74695666  0.14087051  0.32817094    -0.45720
H691        H  0.65073625  0.34771655  0.34834540     0.08070
C692        C  0.70027673  0.37637599  0.15387150     0.43770
C693        C  0.65811119  0.18887394  0.33584882    -0.05250
Co694      Co  0.67774297  0.29026253  0.25497787     0.73820
N695        N  0.75193499  0.37346977  0.32478248    -0.45440
C696        C  0.80621241  0.15007535  0.15519536     0.44040
N697        N  0.62274795  0.24769526  0.18556913    -0.45430
Co698      Co  0.78252375  0.32822862  0.25273641     0.73890
C699        C  0.84111863  0.32773131  0.17631920    -0.05750
C700        C  0.81502180  0.16200149  0.34136621    -0.05320
N701        N  0.67781847  0.20981141  0.20886458    -0.24840
N702        N  0.86121868  0.25887672  0.33887549    -0.45610
H703        H  0.86781007  0.18166230  0.17851870     0.08040
C704        C  0.67230057  0.34733730  0.17669121    -0.05730
Cl705      Cl  0.75092314  0.25832674  0.25510422    -0.48730
C706        C  0.71914286  0.37890641  0.35158800     0.43800
H707        H  0.66548343  0.15247276  0.17782139     0.08010
N708        N  0.73974896  0.37581370  0.17355276    -0.45440
O709        O  0.53437946  0.39687394  0.97182821    -0.78940
O710        O  0.53998360  0.10261958  0.03041106    -0.78970
O711        O  0.54250838  0.02708159  0.92442917    -0.78980
O712        O  0.54578351  0.47552308  0.07716150    -0.78920
O713        O  0.57181965  0.03807582  0.98631621    -0.79040
O714        O  0.56977090  0.46034065  0.01348836    -0.78960
O715        O  0.51509000  0.06076659  0.08211242    -0.78940
O716        O  0.51504419  0.44333627  0.92109941    -0.78980
C717        C  0.53235907  0.40748855  0.93355404     1.10750
C718        C  0.53304735  0.09585050  0.06898268     1.10630
C719        C  0.57576331  0.03537874  0.94658577     1.10770
C720        C  0.57648347  0.46391337  0.05268323     1.10650
O721        O  0.00535815  0.40991176  0.04512434    -0.78950
O722        O  0.00609814  0.09146906  0.95795290    -0.79020
O723        O  0.92612479  0.47724903  0.94096257    -0.78960
O724        O  0.92885510  0.02725461  0.06573523    -0.78940
O725        O  0.95408590  0.08012402  0.02819437    -0.78990
O726        O  0.95116287  0.42161455  0.97437237    -0.78960
O727        O  0.95372674  0.44836984  0.06976373    -0.78910
O728        O  0.95131744  0.05529629  0.93764730    -0.78980
Co729      Co  0.51112710  0.44477997  0.99324184     1.51530
Co730      Co  0.51412756  0.05566097  0.00930602     1.51690
Co731      Co  0.48371861  0.50123856  0.93649658     1.51570
Co732      Co  0.48620856  0.00211156  0.06810143     1.51470
O733        O  0.48824488  0.00094088  0.00204072    -1.40880
C734        C  0.97133302  0.41297350  0.06623387     1.10670
C735        C  0.97055390  0.08985846  0.93916665     1.10760
C736        C  0.92183094  0.43955429  0.95160354     1.10700
C737        C  0.92353346  0.06357649  0.05061983     1.10670
C738        C  0.63786109  0.41128145  0.05800406     0.24790
C739        C  0.61845440  0.44876362  0.07175044    -0.23320
C740        C  0.63462957  0.46650488  0.10867700     0.19700
C741        C  0.66679358  0.44553062  0.13296748     0.24730
C742        C  0.68313801  0.40621473  0.12112532    -0.23260
C743        C  0.66940436  0.39008777  0.08266596     0.19630
F744        F  0.68317484  0.35144359  0.07114471    -0.13220
F745        F  0.62259883  0.39235678  0.02335496    -0.15580
F746        F  0.67837924  0.46136465  0.17046124    -0.15590
F747        F  0.61711402  0.50275620  0.12283332    -0.13220
C748        C  0.57000901  0.15132342  0.16588521     0.24790
C749        C  0.58430777  0.18980295  0.14778692    -0.23320
C750        C  0.57337197  0.20024500  0.10628493     0.19700
C751        C  0.55337219  0.17053147  0.08150023     0.24730
C752        C  0.54480814  0.12954315  0.09789576    -0.23260
C753        C  0.55073702  0.12117609  0.14101611     0.19630
F754        F  0.54165684  0.08276874  0.15835305    -0.13220
F755        F  0.57933191  0.14109875  0.20663740    -0.15580
F756        F  0.54513086  0.18116843  0.04063178    -0.15590
F757        F  0.58666664  0.23720559  0.08835048    -0.13220
C758        C  0.85329034  0.15224594  0.09089299     0.24790
C759        C  0.82328837  0.12984043  0.11672710    -0.23320
C760        C  0.82001118  0.08640107  0.11211919     0.19700
C761        C  0.84956824  0.06522060  0.08606143     0.24730
C762        C  0.88362871  0.08706542  0.06452219    -0.23260
C763        C  0.88322990  0.13115932  0.06523517     0.19630
F764        F  0.91458248  0.15373929  0.04474306    -0.13220
F765        F  0.85632720  0.19461330  0.09349483    -0.15580
F766        F  0.84722244  0.02269175  0.08513459    -0.15590
F767        F  0.79176777  0.06379164  0.13655644    -0.13220
C768        C  0.90726075  0.36740708  0.07097536     0.24790
C769        C  0.95007850  0.37531502  0.08308409    -0.23320
C770        C  0.97084293  0.34852088  0.11266799     0.19700
C771        C  0.94669464  0.31735180  0.13400610     0.24730
C772        C  0.90224058  0.31275733  0.12492615    -0.23260
C773        C  0.88375651  0.33557198  0.09101414     0.19630
F774        F  0.84096533  0.33095013  0.08133362    -0.13220
F775        F  0.88728579  0.39257976  0.04182264    -0.15580
F776        F  0.96492210  0.29581732  0.16698435    -0.15590
F777        F  0.01276514  0.35545712  0.12398354    -0.13220
C778        C  0.62396325  0.34324377  0.89603353     0.24790
C779        C  0.60380170  0.31372791  0.87048469    -0.23320
C780        C  0.55839954  0.31585942  0.86466351     0.19700
C781        C  0.53401266  0.34818323  0.88317836     0.24730
C782        C  0.55543063  0.37955753  0.90542229    -0.23260
C783        C  0.60043413  0.37660340  0.91165366     0.19630
F784        F  0.62154752  0.40584227  0.93416171    -0.13220
F785        F  0.66761774  0.34152026  0.90328397    -0.15580
F786        F  0.48991001  0.34864421  0.87983877    -0.15590
F787        F  0.53820786  0.28800190  0.83991700    -0.13220
C788        C  0.65029584  0.07044217  0.94355875     0.24790
C789        C  0.61742419  0.04708915  0.92401416    -0.23320
C790        C  0.62139624  0.04090068  0.88026636     0.19700
C791        C  0.65398119  0.06119452  0.85636446     0.24730
C792        C  0.68389293  0.08800104  0.87522892    -0.23260
C793        C  0.68290548  0.09097283  0.91930656     0.19630
F794        F  0.71090971  0.11704390  0.93848160    -0.13220
F795        F  0.64877004  0.07661801  0.98559580    -0.15580
F796        F  0.65324927  0.05837617  0.81382404    -0.15590
F797        F  0.59162838  0.01780934  0.85966657    -0.13220
C798        C  0.97168582  0.15130591  0.88912874     0.24790
C799        C  0.95051294  0.12787867  0.92114309    -0.23320
C800        C  0.90793979  0.13845314  0.93310155     0.19700
C801        C  0.88515346  0.16943317  0.91059269     0.24730
C802        C  0.90412039  0.18881971  0.87484987    -0.23260
C803        C  0.94831742  0.18166084  0.86568784     0.19630
F804        F  0.96682146  0.19948252  0.83072569    -0.13220
F805        F  0.01304828  0.14136155  0.87743828    -0.15580
F806        F  0.84250822  0.17640274  0.92008397    -0.15590
F807        F  0.88729216  0.11649416  0.96442585    -0.13220
C808        C  0.81885690  0.38594193  0.90987192     0.24790
C809        C  0.83045314  0.38336675  0.86700916    -0.23320
C810        C  0.87090024  0.39987752  0.85394044     0.19700
C811        C  0.90049541  0.41476479  0.88283357     0.24730
C812        C  0.89021302  0.41617151  0.92587483    -0.23260
C813        C  0.84810402  0.40349981  0.93898643     0.19630
F814        F  0.83498258  0.40855382  0.97926195    -0.13220
F815        F  0.78008165  0.37045156  0.92368731    -0.15580
F816        F  0.93965321  0.42885836  0.86828905    -0.15590
F817        F  0.88286215  0.39994206  0.81272680    -0.13220
C818        C  0.76610756  0.42860886  0.39035012     0.24790
C819        C  0.72594719  0.40668834  0.38809538    -0.23320
C820        C  0.69507689  0.41241740  0.42033048     0.19700
C821        C  0.70341755  0.44099129  0.45247899     0.24730
C822        C  0.74292791  0.46361200  0.45295077    -0.23260
C823        C  0.77445516  0.45582389  0.42248014     0.19630
F824        F  0.81295414  0.97671172  0.42235408    -0.13220
F825        F  0.79748692  0.42581122  0.36030541    -0.15580
F826        F  0.67191459  0.44862034  0.48143517    -0.15590
F827        F  0.65657305  0.39170480  0.42003778    -0.13220
C828        C  0.73066973  0.08279580  0.39418485     0.24790
C829        C  0.77093530  0.10463934  0.39241366    -0.23320
C830        C  0.80163700  0.09615044  0.42431881     0.19700
C831        C  0.79317292  0.06475500  0.45544494     0.24730
C832        C  0.75370908  0.04207361  0.45517748    -0.23260
C833        C  0.72220603  0.05273590  0.42531936     0.19630
F834        F  0.68380311  0.03174343  0.42448544    -0.13220
F835        F  0.69944702  0.08828903  0.36440745    -0.15580
F836        F  0.82462935  0.05443515  0.48384880    -0.15590
F837        F  0.84023131  0.11672119  0.42446858    -0.13220
C838        C  0.72303843  0.44625387  0.57322028     0.24790
C839        C  0.75522314  0.45815408  0.54443976    -0.23320
C840        C  0.79516955  0.43578695  0.54403413     0.19700
C841        C  0.80339858  0.40333851  0.57413917     0.24730
C842        C  0.77178080  0.39326427  0.60491010    -0.23260
C843        C  0.73098627  0.41475545  0.60302655     0.19630
F844        F  0.69856858  0.40737661  0.63142192    -0.13220
F845        F  0.68423404  0.46706894  0.57413974    -0.15580
F846        F  0.84251667  0.38319096  0.57412152    -0.15590
F847        F  0.82712633  0.44728683  0.51646090    -0.13220
C848        C  0.70396202  0.05888351  0.54973282     0.24790
C849        C  0.74386691  0.03650859  0.54781247    -0.23320
C850        C  0.77571571  0.04377124  0.57775522     0.19700
C851        C  0.76737271  0.07019536  0.61071423     0.24730
C852        C  0.72676953  0.09163809  0.61451525    -0.23260
C853        C  0.69552074  0.08650397  0.58285039     0.19630
F854        F  0.65661482  0.10690953  0.58456355    -0.13220
F855        F  0.67221853  0.05186313  0.52123322    -0.15580
F856        F  0.79929757  0.07280808  0.63994031    -0.15590
F857        F  0.81459400  0.02311523  0.57652345    -0.13220
C858        C  0.97462537  0.27766386  0.40462350     0.24790
C859        C  0.96684483  0.27249511  0.44885291    -0.23320
C860        C  0.92545494  0.28656907  0.46349975     0.19700
C861        C  0.89182665  0.29730055  0.43493475     0.24730
C862        C  0.89974322  0.29783574  0.39147115    -0.23260
C863        C  0.94184197  0.29032986  0.37703791     0.19630
F864        F  0.95063996  0.29222014  0.33507642    -0.13220
F865        F  0.01386924  0.27060665  0.38634096    -0.15580
F866        F  0.85115833  0.30559262  0.44971002    -0.15590
F867        F  0.91683343  0.29073012  0.50492028    -0.13220
C868        C  0.54604094  0.20121976  0.43802284     0.24790
C869        C  0.54428017  0.24101005  0.45634373    -0.23320
C870        C  0.57842437  0.26939132  0.44877802     0.19700
C871        C  0.61180384  0.25951296  0.42089179     0.24730
C872        C  0.61041906  0.22222222  0.39818865    -0.23260
C873        C  0.57885206  0.19196784  0.40866843     0.19630
F874        F  0.57674099  0.15585215  0.38713834    -0.13220
F875        F  0.51331748  0.17336272  0.44501109    -0.15580
F876        F  0.64310312  0.28860601  0.41260420    -0.15590
F877        F  0.57668019  0.30865554  0.46414351    -0.13220
C878        C  0.90499330  0.19295475  0.56814050     0.24790
C879        C  0.90718503  0.20472802  0.61043481    -0.23320
C880        C  0.94160629  0.23047471  0.62236983     0.19700
C881        C  0.96859982  0.24943380  0.59264137     0.24730
C882        C  0.96762158  0.23831275  0.54987706    -0.23260
C883        C  0.93625505  0.20808953  0.53843288     0.19630
F884        F  0.93495978  0.19407649  0.49857795    -0.13220
F885        F  0.87198120  0.16827787  0.55533470    -0.15580
F886        F  0.99469055  0.28013893  0.60664009    -0.15590
F887        F  0.94633755  0.24128013  0.66318346    -0.13220
C888        C  0.59127548  0.30614681  0.58390685     0.24790
C889        C  0.61145531  0.27051827  0.60235472    -0.23320
C890        C  0.60307859  0.23074568  0.58572693     0.19700
C891        C  0.57015959  0.22578072  0.55639910     0.24730
C892        C  0.54632878  0.26067302  0.54179253    -0.23260
C893        C  0.55912092  0.30124080  0.55322356     0.19630
F894        F  0.53634184  0.33543098  0.53900106    -0.13220
F895        F  0.59919519  0.34500336  0.59841730    -0.15580
F896        F  0.55930653  0.18658468  0.54456356    -0.15590
F897        F  0.62484346  0.19600821  0.59984714    -0.13220
C898        C  0.00362164  0.75431310  0.52065991     0.01760
C899        C  0.50326829  0.75518259  0.47747455     0.01760
C900        C  0.74848716  0.50147835  0.47892282     0.01460
C901        C  0.74942508  0.99897199  0.52128257     0.01760
C902        C  0.63524606  0.77231814  0.64259559     0.43650
N903        N  0.66138084  0.74978869  0.70121302     0.02540
C904        C  0.83467864  0.82585555  0.81330656    -0.05340
H905        H  0.84812431  0.83144982  0.64254459     0.08030
C906        C  0.84727276  0.67020828  0.66445373    -0.05690
Co907      Co  0.72080354  0.81032224  0.74382881     0.74180
N908        N  0.80054138  0.81546029  0.69137886    -0.24870
Co909      Co  0.82424177  0.77180946  0.73813240     0.74070
C910        C  0.86908818  0.70420019  0.63943186     0.43750
N911        N  0.74159198  0.65054959  0.70615301     0.02160
N912        N  0.83743215  0.72959007  0.69348194     0.02260
N913        N  0.76811436  0.85583972  0.82025081    -0.45710
H914        H  0.66646580  0.83723196  0.64995503     0.08020
N915        N  0.76045791  0.82885078  0.69679377     0.02550
N916        N  0.84651298  0.72902075  0.78540092     0.02290
C917        C  0.87457560  0.70084436  0.84075852     0.43890
N918        N  0.70100580  0.66389643  0.70307301    -0.24320
C919        C  0.66523780  0.81677729  0.81853967    -0.05240
N920        N  0.63748181  0.73898442  0.66910332    -0.45430
N921        N  0.87561625  0.73559666  0.81534282    -0.45650
C922        C  0.63276436  0.79269193  0.84069736     0.43660
N923        N  0.76904475  0.82914724  0.78838078     0.02530
N924        N  0.70022890  0.66894213  0.79603950    -0.24340
N925        N  0.67561003  0.78879793  0.69846428    -0.24840
N926        N  0.73960535  0.65194640  0.79721788     0.02170
H927        H  0.64153122  0.65952999  0.83203623     0.08060
H928        H  0.83582993  0.64015101  0.83416073     0.08100
N929        N  0.80814795  0.81252399  0.78389202    -0.24890
N930        N  0.82755414  0.68946958  0.69726180    -0.24500
N931        N  0.66073845  0.75476819  0.79265361     0.02540
C932        C  0.77898858  0.86227789  0.64028253     0.43940
C933        C  0.68396156  0.64479550  0.66901356    -0.05750
N934        N  0.82851079  0.69168297  0.78973024    -0.24500
H935        H  0.84625897  0.63703504  0.65847549     0.08080
N936        N  0.74707642  0.85595884  0.66810984    -0.45720
H937        H  0.65103146  0.64873766  0.65772344     0.08070
C938        C  0.70338472  0.62229095  0.84865983     0.43770
C939        C  0.65979054  0.80609158  0.66223476    -0.05250
Co940      Co  0.67943313  0.70885256  0.74835074     0.73820
N941        N  0.75357642  0.62454995  0.67723110    -0.45440
C942        C  0.80890123  0.85436142  0.83766933     0.44040
N943        N  0.63022070  0.75434965  0.82280361    -0.45430
Co944      Co  0.78495985  0.66987558  0.74813443     0.73890
C945        C  0.84413155  0.67166771  0.82356939    -0.05750
C946        C  0.81581216  0.83522305  0.65571067    -0.05320
N947        N  0.68029216  0.79143028  0.78994623    -0.24840
N948        N  0.86081289  0.73935742  0.66011554    -0.45610
H949        H  0.86880305  0.81766218  0.81635833     0.08040
C950        C  0.67581218  0.65295174  0.82719469    -0.05730
Cl951      Cl  0.75228676  0.74017348  0.74484839    -0.48730
C952        C  0.72010597  0.61863372  0.65174292     0.43800
H953        H  0.67376856  0.84952287  0.82095242     0.08010
N954        N  0.74238106  0.62219143  0.82763445    -0.45440
C955        C  0.63370817  0.72181734  0.35757759     0.43650
N956        N  0.66104145  0.74762698  0.30084347     0.02540
C957        C  0.83368916  0.67400156  0.18211783    -0.05340
H958        H  0.84685845  0.66618588  0.35503252     0.08030
C959        C  0.84163873  0.82709465  0.33585256    -0.05690
Co960      Co  0.71984679  0.68868000  0.25359657     0.74180
N961        N  0.80007834  0.68175764  0.30563496    -0.24870
Co962      Co  0.82386140  0.72605622  0.25988586     0.74070
C963        C  0.86442450  0.79412329  0.36073515     0.43750
N964        N  0.73975575  0.84745190  0.29618671     0.02160
N965        N  0.83757161  0.76786545  0.30533072     0.02260
N966        N  0.76557751  0.64891962  0.17309928    -0.45710
H967        H  0.66389196  0.65678078  0.34591959     0.08020
N968        N  0.76034167  0.66815143  0.29963203     0.02550
N969        N  0.84503202  0.76979529  0.21335383     0.02290
C970        C  0.87228110  0.79922777  0.15822688     0.43890
N971        N  0.69962239  0.83377681  0.30071781    -0.24320
C972        C  0.65860713  0.68552088  0.18155200    -0.05240
N973        N  0.63679602  0.75682020  0.33353260    -0.45430
N974        N  0.87428398  0.76408618  0.18302449    -0.45650
C975        C  0.62201781  0.71009249  0.16648147     0.43660
N976        N  0.76792939  0.67181483  0.20767507     0.02530
N977        N  0.69703258  0.83137646  0.20760862    -0.24340
N978        N  0.67474143  0.70821690  0.30089823    -0.24840
N979        N  0.73665139  0.84727450  0.20505290     0.02170
H980        H  0.63816990  0.84066283  0.17193665     0.08060
H981        H  0.83227831  0.85946045  0.16662101     0.08100
N982        N  0.80764829  0.68629955  0.21301994    -0.24890
N983        N  0.82501422  0.80753697  0.30233586    -0.24500
N984        N  0.65778683  0.74649990  0.21013784     0.02540
C985        C  0.77850678  0.63465068  0.35627778     0.43940
C986        C  0.68316396  0.85231509  0.33565099    -0.05750
N987        N  0.82604054  0.80698338  0.20993985    -0.24500
H988        H  0.83778615  0.85989056  0.34254570     0.08080
N989        N  0.74695666  0.64087052  0.32817094    -0.45720
H990        H  0.65073625  0.84771655  0.34834540     0.08070
C991        C  0.70027673  0.87637599  0.15387150     0.43770
C992        C  0.65811117  0.68887394  0.33584881    -0.05250
Co993      Co  0.67774297  0.79026254  0.25497786     0.73820
N994        N  0.75193499  0.87346978  0.32478248    -0.45440
C995        C  0.80621240  0.65007535  0.15519536     0.44040
N996        N  0.62274795  0.74769526  0.18556913    -0.45430
Co997      Co  0.78252374  0.82822863  0.25273641     0.73890
C998        C  0.84111863  0.82773132  0.17631919    -0.05750
C999        C  0.81502179  0.66200150  0.34136621    -0.05320
N1000       N  0.67781846  0.70981141  0.20886458    -0.24840
N1001       N  0.86121868  0.75887673  0.33887549    -0.45610
H1002       H  0.86781006  0.68166231  0.17851870     0.08040
C1003       C  0.67230057  0.84733730  0.17669120    -0.05730
Cl1004     Cl  0.75092314  0.75832674  0.25510421    -0.48730
C1005       C  0.71914286  0.87890642  0.35158800     0.43800
H1006       H  0.66548342  0.65247277  0.17782139     0.08010
N1007       N  0.73974895  0.87581370  0.17355275    -0.45440
O1008       O  0.53437945  0.89687394  0.97182820    -0.78940
O1009       O  0.53998360  0.60261958  0.03041106    -0.78970
O1010       O  0.54250838  0.52708159  0.92442917    -0.78980
O1011       O  0.54578351  0.97552308  0.07716149    -0.78920
O1012       O  0.57181965  0.53807582  0.98631621    -0.79040
O1013       O  0.56977089  0.96034065  0.01348835    -0.78960
O1014       O  0.51509001  0.56076659  0.08211242    -0.78940
O1015       O  0.51504418  0.94333628  0.92109940    -0.78980
C1016       C  0.53235906  0.90748855  0.93355403     1.10750
C1017       C  0.53304735  0.59585050  0.06898268     1.10630
C1018       C  0.57576331  0.53537874  0.94658578     1.10770
C1019       C  0.57648347  0.96391337  0.05268322     1.10650
O1020       O  0.00535816  0.90991176  0.04512434    -0.78950
O1021       O  0.00609814  0.59146906  0.95795291    -0.79020
O1022       O  0.92612479  0.97724903  0.94096256    -0.78960
O1023       O  0.92885510  0.52725461  0.06573524    -0.78940
O1024       O  0.95408590  0.58012401  0.02819438    -0.78990
O1025       O  0.95116287  0.92161455  0.97437236    -0.78960
O1026       O  0.95372674  0.94836984  0.06976373    -0.78910
O1027       O  0.95131743  0.55529629  0.93764731    -0.78980
Co1028     Co  0.51112710  0.94477997  0.99324183     1.51530
Co1029     Co  0.51412756  0.55566096  0.00930602     1.51690
Co1030     Co  0.48371861  0.00123857  0.93649657     1.51570
Co1031     Co  0.48620857  0.50211156  0.06810144     1.51470
O1032       O  0.48824488  0.50094087  0.00204072    -1.40880
C1033       C  0.97133302  0.91297350  0.06623386     1.10670
C1034       C  0.97055390  0.58985847  0.93916666     1.10760
C1035       C  0.92183094  0.93955429  0.95160354     1.10700
C1036       C  0.92353346  0.56357649  0.05061984     1.10670
C1037       C  0.63786108  0.91128145  0.05800405     0.24790
C1038       C  0.61845440  0.94876362  0.07175042    -0.23320
C1039       C  0.63462957  0.96650488  0.10867699     0.19700
C1040       C  0.66679358  0.94553062  0.13296747     0.24730
C1041       C  0.68313800  0.90621473  0.12112532    -0.23260
C1042       C  0.66940436  0.89008777  0.08266595     0.19630
F1043       F  0.68317483  0.85144359  0.07114470    -0.13220
F1044       F  0.62259882  0.89235678  0.02335496    -0.15580
F1045       F  0.67837924  0.96136465  0.17046123    -0.15590
F1046       F  0.61711402  0.00275620  0.12283330    -0.13220
C1047       C  0.57000900  0.65132343  0.16588521     0.24790
C1048       C  0.58430776  0.68980296  0.14778692    -0.23320
C1049       C  0.57337197  0.70024501  0.10628493     0.19700
C1050       C  0.55337219  0.67053148  0.08150022     0.24730
C1051       C  0.54480814  0.62954315  0.09789576    -0.23260
C1052       C  0.55073701  0.62117609  0.14101611     0.19630
F1053       F  0.54165683  0.58276875  0.15835306    -0.13220
F1054       F  0.57933190  0.64109877  0.20663740    -0.15580
F1055       F  0.54513086  0.68116843  0.04063178    -0.15590
F1056       F  0.58666664  0.73720559  0.08835048    -0.13220
C1057       C  0.85329033  0.65224594  0.09089299     0.24790
C1058       C  0.82328836  0.62984043  0.11672710    -0.23320
C1059       C  0.82001117  0.58640107  0.11211919     0.19700
C1060       C  0.84956824  0.56522060  0.08606144     0.24730
C1061       C  0.88362871  0.58706542  0.06452220    -0.23260
C1062       C  0.88322990  0.63115932  0.06523517     0.19630
F1063       F  0.91458247  0.65373928  0.04474305    -0.13220
F1064       F  0.85632719  0.69461330  0.09349483    -0.15580
F1065       F  0.84722244  0.52269174  0.08513460    -0.15590
F1066       F  0.79176777  0.56379164  0.13655645    -0.13220
C1067       C  0.90726076  0.86740708  0.07097535     0.24790
C1068       C  0.95007851  0.87531502  0.08308410    -0.23320
C1069       C  0.97084293  0.84852089  0.11266800     0.19700
C1070       C  0.94669464  0.81735181  0.13400611     0.24730
C1071       C  0.90224058  0.81275733  0.12492615    -0.23260
C1072       C  0.88375652  0.83557197  0.09101414     0.19630
F1073       F  0.84096534  0.83095012  0.08133361    -0.13220
F1074       F  0.88728580  0.89257975  0.04182263    -0.15580
F1075       F  0.96492210  0.79581734  0.16698437    -0.15590
F1076       F  0.01276514  0.85545713  0.12398356    -0.13220
C1077       C  0.62396324  0.84324376  0.89603353     0.24790
C1078       C  0.60380169  0.81372791  0.87048469    -0.23320
C1079       C  0.55839953  0.81585942  0.86466350     0.19700
C1080       C  0.53401265  0.84818323  0.88317835     0.24730
C1081       C  0.55543062  0.87955753  0.90542228    -0.23260
C1082       C  0.60043413  0.87660340  0.91165366     0.19630
F1083       F  0.62154751  0.90584227  0.93416170    -0.13220
F1084       F  0.66761773  0.84152025  0.90328397    -0.15580
F1085       F  0.48991000  0.84864422  0.87983876    -0.15590
F1086       F  0.53820785  0.78800190  0.83991699    -0.13220
C1087       C  0.65029584  0.57044217  0.94355876     0.24790
C1088       C  0.61742419  0.54708914  0.92401417    -0.23320
C1089       C  0.62139624  0.54090068  0.88026636     0.19700
C1090       C  0.65398119  0.56119452  0.85636447     0.24730
C1091       C  0.68389293  0.58800104  0.87522892    -0.23260
C1092       C  0.68290548  0.59097283  0.91930656     0.19630
F1093       F  0.71090971  0.61704390  0.93848160    -0.13220
F1094       F  0.64877003  0.57661802  0.98559581    -0.15580
F1095       F  0.65324927  0.55837616  0.81382405    -0.15590
F1096       F  0.59162838  0.51780933  0.85966658    -0.13220
C1097       C  0.97168581  0.65130593  0.88912878     0.24790
C1098       C  0.95051293  0.62787867  0.92114312    -0.23320
C1099       C  0.90793976  0.63845312  0.93310156     0.19700
C1100       C  0.88515343  0.66943315  0.91059270     0.24730
C1101       C  0.90412037  0.68881971  0.87484990    -0.23260
C1102       C  0.94831740  0.68166086  0.86568788     0.19630
F1103       F  0.96682145  0.69948256  0.83072575    -0.13220
F1104       F  0.01304828  0.64136160  0.87743833    -0.15580
F1105       F  0.84250819  0.67640270  0.92008397    -0.15590
F1106       F  0.88729213  0.61649412  0.96442584    -0.13220
C1107       C  0.81885690  0.88594192  0.90987193     0.24790
C1108       C  0.83045313  0.88336675  0.86700917    -0.23320
C1109       C  0.87090023  0.89987753  0.85394044     0.19700
C1110       C  0.90049540  0.91476479  0.88283357     0.24730
C1111       C  0.89021302  0.91617151  0.92587483    -0.23260
C1112       C  0.84810402  0.90349981  0.93898643     0.19630
F1113       F  0.83498258  0.90855381  0.97926196    -0.13220
F1114       F  0.78008165  0.87045155  0.92368732    -0.15580
F1115       F  0.93965320  0.92885837  0.86828904    -0.15590
F1116       F  0.88286213  0.89994207  0.81272680    -0.13220
C1117       C  0.76610756  0.92860886  0.39035012     0.24790
C1118       C  0.72594719  0.90668834  0.38809537    -0.23320
C1119       C  0.69507689  0.91241740  0.42033048     0.19700
C1120       C  0.70341755  0.94099129  0.45247899     0.24730
C1121       C  0.74292792  0.96361200  0.45295077    -0.23260
C1122       C  0.77445516  0.95582389  0.42248014     0.19630
F1123       F  0.81295414  0.47671172  0.42235407    -0.13220
F1124       F  0.79748692  0.92581122  0.36030541    -0.15580
F1125       F  0.67191460  0.94862034  0.48143517    -0.15590
F1126       F  0.65657305  0.89170480  0.42003778    -0.13220
C1127       C  0.73066973  0.58279580  0.39418485     0.24790
C1128       C  0.77093530  0.60463935  0.39241365    -0.23320
C1129       C  0.80163700  0.59615044  0.42431880     0.19700
C1130       C  0.79317293  0.56475500  0.45544493     0.24730
C1131       C  0.75370908  0.54207361  0.45517748    -0.23260
C1132       C  0.72220602  0.55273590  0.42531936     0.19630
F1133       F  0.68380311  0.53174344  0.42448544    -0.13220
F1134       F  0.69944701  0.58828904  0.36440745    -0.15580
F1135       F  0.82462935  0.55443515  0.48384879    -0.15590
F1136       F  0.84023131  0.61672119  0.42446857    -0.13220
C1137       C  0.72303843  0.94625386  0.57322027     0.24790
C1138       C  0.75522315  0.95815407  0.54443976    -0.23320
C1139       C  0.79516956  0.93578694  0.54403413     0.19700
C1140       C  0.80339859  0.90333851  0.57413918     0.24730
C1141       C  0.77178080  0.89326426  0.60491010    -0.23260
C1142       C  0.73098627  0.91475543  0.60302654     0.19630
F1143       F  0.69856857  0.90737658  0.63142191    -0.13220
F1144       F  0.68423404  0.96706892  0.57413972    -0.15580
F1145       F  0.84251668  0.88319097  0.57412153    -0.15590
F1146       F  0.82712635  0.94728683  0.51646092    -0.13220
C1147       C  0.70396202  0.55888352  0.54973282     0.24790
C1148       C  0.74386691  0.53650860  0.54781246    -0.23320
C1149       C  0.77571572  0.54377126  0.57775520     0.19700
C1150       C  0.76737272  0.57019538  0.61071420     0.24730
C1151       C  0.72676954  0.59163810  0.61451524    -0.23260
C1152       C  0.69552074  0.58650397  0.58285039     0.19630
F1153       F  0.65661482  0.60690952  0.58456356    -0.13220
F1154       F  0.67221852  0.55186313  0.52123322    -0.15580
F1155       F  0.79929760  0.57280811  0.63994028    -0.15590
F1156       F  0.81459400  0.52311525  0.57652342    -0.13220
C1157       C  0.97462537  0.77766391  0.40462351     0.24790
C1158       C  0.96684482  0.77249513  0.44885291    -0.23320
C1159       C  0.92545492  0.78656907  0.46349975     0.19700
C1160       C  0.89182663  0.79730054  0.43493475     0.24730
C1161       C  0.89974321  0.79783576  0.39147115    -0.23260
C1162       C  0.94184196  0.79032990  0.37703792     0.19630
F1163       F  0.95063996  0.79222021  0.33507643    -0.13220
F1164       F  0.01386925  0.77060674  0.38634097    -0.15580
F1165       F  0.85115830  0.80559258  0.44971002    -0.15590
F1166       F  0.91683340  0.79073009  0.50492029    -0.13220
C1167       C  0.54604090  0.70121978  0.43802281     0.24790
C1168       C  0.54428016  0.74101006  0.45634372    -0.23320
C1169       C  0.57842437  0.76939132  0.44877803     0.19700
C1170       C  0.61180384  0.75951295  0.42089179     0.24730
C1171       C  0.61041904  0.72222222  0.39818864    -0.23260
C1172       C  0.57885202  0.69196785  0.40866840     0.19630
F1173       F  0.57674093  0.65585218  0.38713829    -0.13220
F1174       F  0.51331742  0.67336275  0.44501104    -0.15580
F1175       F  0.64310314  0.78860598  0.41260422    -0.15590
F1176       F  0.57668021  0.80865553  0.46414353    -0.13220
C1177       C  0.90499331  0.69295475  0.56814051     0.24790
C1178       C  0.90718504  0.70472803  0.61043482    -0.23320
C1179       C  0.94160630  0.73047473  0.62236983     0.19700
C1180       C  0.96859981  0.74943383  0.59264137     0.24730
C1181       C  0.96762157  0.73831276  0.54987706    -0.23260
C1182       C  0.93625505  0.70808953  0.53843289     0.19630
F1183       F  0.93495979  0.69407648  0.49857797    -0.13220
F1184       F  0.87198122  0.66827786  0.55533472    -0.15580
F1185       F  0.99469054  0.78013896  0.60664008    -0.15590
F1186       F  0.94633755  0.74128017  0.66318346    -0.13220
C1187       C  0.59127548  0.80614681  0.58390685     0.24790
C1188       C  0.61145531  0.77051827  0.60235472    -0.23320
C1189       C  0.60307859  0.73074568  0.58572693     0.19700
C1190       C  0.57015959  0.72578073  0.55639909     0.24730
C1191       C  0.54632878  0.76067303  0.54179253    -0.23260
C1192       C  0.55912092  0.80124081  0.55322356     0.19630
F1193       F  0.53634186  0.83543099  0.53900106    -0.13220
F1194       F  0.59919521  0.84500336  0.59841730    -0.15580
F1195       F  0.55930652  0.68658469  0.54456355    -0.15590
F1196       F  0.62484344  0.69600821  0.59984714    -0.13220
loop_ 
_geom_bond_atom_site_label_1 
_geom_bond_atom_site_label_2 
_geom_bond_distance 
_geom_bond_site_symmetry_2 
_ccdc_geom_bond_type 
C1          C284   1.521       .  S
C1          C892   1.492       .  S
C1          C600   1.373       .  D
C2          C271   1.496       .  S
C2          C859   1.534   1_455  S
C2          C599   1.373       .  D
C3          C234   1.488       .  S
C3          C523   1.492   1_545  S
C3          C303   1.348   1_545  D
C4          C241   1.486       .  S
C4          C550   1.491       .  S
C4          C302   1.348       .  D
C5           N23   1.339       .  A
C5           C42   1.472       .  S
C5          C291   1.479       .  S
N6           N23   1.315       .  A
N6           N28   1.320       .  A
N6          Co43   2.035       .  S
C7           N32   1.323       .  A
C7           C45   1.440       .  S
C7           H52   1.081       .  S
H8           C49   1.081       .  S
C9           N33   1.362       .  A
C9           C13   1.486       .  S
C9           H38   1.080       .  S
Co10         N28   2.135       .  S
Co10         N18   2.002       .  S
Co10         N50   2.000       .  S
Co10         N26   2.153       .  S
Co10        Cl54   2.428       .  S
N11          C49   1.364       .  A
N11          N18   1.310       .  A
N11         Co12   2.134       .  S
Co12         N15   2.021       .  S
Co12         N32   2.033       .  S
Co12         N19   2.113       .  S
Co12        Cl54   2.438       .  S
C13          N51   1.337       .  A
C13         C281   1.485       .  S
N14          N21   1.316       .  A
N14          N44   1.305       .  A
N14         Co47   2.001       .  S
N15          N33   1.317       .  A
N15          N51   1.309       .  A
N16          C45   1.370       .  A
N16          N26   1.341       .  A
H17          C42   1.076       .  S
N18          N39   1.304       .  A
N19          N37   1.318       .  A
N19          N24   1.330       .  A
C20          N24   1.353       .  A
C20          C48   1.442       .  S
C20         C204   1.457       .  S
N21          C36   1.365       .  A
N21         Co43   2.158       .  S
C22          N50   1.313       .  A
C22          C25   1.432       .  S
C22          H56   1.082       .  S
C25          N46   1.365       .  A
C25         C181   1.468       .  S
N26          N32   1.316       .  A
N27          C53   1.331       .  A
N27          N29   1.320       .  A
N27         Co43   2.053       .  S
N28          C42   1.354       .  A
N29          N57   1.338       .  A
N29         Co47   2.153       .  S
H30          C53   1.082       .  S
H31          C48   1.082       .  S
N33         Co47   2.156       .  S
N34          N46   1.336       .  A
N34          N50   1.317       .  A
N34         Co43   2.133       .  S
C35          N39   1.329       .  A
C35          C49   1.492       .  S
C35         C244   1.492       .  S
C36          C55   1.494       .  S
C36          H40   1.079       .  S
N37          C48   1.325       .  A
N37         Co47   2.024       .  S
C41          N57   1.367       .  A
C41          C53   1.446       .  S
C41         C194   1.489       .  S
Co43        Cl54   2.453       .  S
N44          C55   1.328       .  A
C45         C211   1.491       .  S
Co47        Cl54   2.447       .  S
C55         C254   1.495       .  S
C58          N76   1.338       .  A
C58          C95   1.471       .  S
C58         C274   1.473       .  S
N59          N76   1.314       .  A
N59          N81   1.321       .  A
N59         Co96   2.031       .  S
C60          N85   1.329       .  A
C60          C98   1.441       .  S
C60         H105   1.081       .  S
H61         C102   1.081       .  S
C62          N86   1.353       .  A
C62          C66   1.472       .  S
C62          H91   1.078       .  S
Co63         N81   2.141       .  S
Co63         N71   2.016       .  S
Co63        N103   2.022       .  S
Co63         N79   2.147       .  S
Co63       Cl107   2.422       .  S
N64         C102   1.363       .  A
N64          N71   1.312       .  A
N64         Co65   2.128       .  S
Co65         N68   2.040       .  S
Co65         N85   2.048       .  S
Co65         N72   2.107       .  S
Co65       Cl107   2.459       .  S
C66         N104   1.341       .  A
C66         C264   1.470       .  S
N67          N74   1.314       .  A
N67          N97   1.305       .  A
N67        Co100   2.006       .  S
N68          N86   1.320       .  A
N68         N104   1.316       .  A
N69          C98   1.368       .  A
N69          N79   1.339       .  A
H70          C95   1.076       .  S
N71          N92   1.305       .  A
N72          N90   1.318       .  A
N72          N77   1.329       .  A
C73          N77   1.352       .  A
C73         C101   1.443       .  S
C73         C174   1.457       .  S
N74          C89   1.366       .  A
N74         Co96   2.150       .  S
C75         N103   1.322       .  A
C75          C78   1.440       .  S
C75         H109   1.082       .  S
C78          N99   1.358       .  A
C78         C151   1.465       .  S
N79          N85   1.319       .  A
N80         C106   1.332       .  A
N80          N82   1.320       .  A
N80         Co96   2.056       .  S
N81          C95   1.355       .  A
N82         N110   1.337       .  A
N82        Co100   2.145       .  S
H83         C106   1.081       .  S
H84         C101   1.082       .  S
N86        Co100   2.138       .  S
N87          N99   1.331       .  A
N87         N103   1.318       .  A
N87         Co96   2.117       .  S
C88          N92   1.330       .  A
C88         C102   1.491       .  S
C88         C231   1.492       .  S
C89         C108   1.494       .  S
C89          H93   1.081       .  S
N90         C101   1.324       .  A
N90        Co100   2.028       .  S
C94         N110   1.365       .  A
C94         C106   1.444       .  S
C94         C144   1.486       .  S
Co96       Cl107   2.457       .  S
N97         C108   1.329       .  A
C98         C161   1.490       .  S
Co100      Cl107   2.433       .  S
C108        C221   1.496       .  S
O111        C119   1.256       .  A
O111       Co131   1.827       .  S
O112        C120   1.257       .  A
O112       Co132   1.842       .  S
O113        C121   1.275       .  A
O113       Co432   2.017   1_455  S
O114        C122   1.278       .  A
O114       Co433   2.027   1_455  S
O115        C121   1.274       .  A
O115       Co132   1.994   1_556  S
O116        C122   1.273       .  A
O116       Co131   1.983   1_554  S
O117        C120   1.306       .  A
O117       Co134   2.132   1_455  S
O118        C119   1.308       .  A
O118       Co133   2.142   1_455  S
C119        C184   1.457       .  S
C120        C154   1.480       .  S
C121        C191   1.506       .  S
C122        C141   1.496       .  S
O123        C136   1.243       .  A
O123       Co729   1.971   1_554  S
O124        C137   1.247       .  A
O124       Co730   1.981   1_556  S
O125        C138   1.246       .  A
O125       Co731   1.932       .  S
O126        C139   1.250       .  A
O126       Co732   1.928       .  S
O127        C139   1.282       .  A
O127       Co730   2.087       .  S
O128        C138   1.279       .  A
O128       Co729   2.083       .  S
O129        C136   1.254       .  A
O129      Co1031   1.985       .  S
O130        C137   1.255       .  A
O130      Co1030   1.983       .  S
Co131       O721   1.971   1_556  S
Co131       O726   2.083   1_455  S
Co131       O434   1.944   1_456  S
Co132       O722   1.981   1_554  S
Co132       O725   2.087   1_455  S
Co132       O135   1.940   1_455  S
Co133       O412   2.017   1_655  S
Co133       O723   1.932       .  S
Co133      O1027   1.983       .  S
Co133       O434   2.089   1_556  S
Co134       O413   2.027   1_645  S
Co134       O724   1.928       .  S
Co134      O1026   1.985   1_545  S
Co134       O135   2.103       .  S
O135       Co430   1.944   1_644  S
O135       Co432   2.089   1_554  S
C136        C171   1.457       .  S
C137        C201   1.458       .  S
C138        C214   1.488       .  S
C139        C164   1.501       .  S
C140        C141   1.410       .  A
C140        C145   1.405       .  A
C140        F147   1.357       .  S
C141        C142   1.411       .  A
C142        C143   1.409       .  A
C142        F149   1.358       .  S
C143        C144   1.406       .  A
C143        F148   1.357       .  S
C144        C145   1.407       .  A
C145        F146   1.358       .  S
C150        C151   1.411       .  A
C150        C155   1.397       .  A
C150        F157   1.359       .  S
C151        C152   1.394       .  A
C152        C153   1.395       .  A
C152        F159   1.358       .  S
C153        C154   1.418       .  A
C153        F158   1.358       .  S
C154        C155   1.402       .  A
C155        F156   1.358       .  S
C160        C161   1.414       .  A
C160        C165   1.405       .  A
C160        F167   1.358       .  S
C161        C162   1.400       .  A
C162        C163   1.407       .  A
C162        F169   1.358       .  S
C163        C164   1.421       .  A
C163        F168   1.358       .  S
C164        C165   1.405       .  A
C165        F166   1.358       .  S
C170        C171   1.396       .  A
C170        C175   1.387       .  A
C170        F177   1.354       .  S
C171        C172   1.404       .  A
C172        C173   1.401       .  A
C172        F179   1.358       .  S
C173        C174   1.404       .  A
C173        F178   1.358       .  S
C174        C175   1.403       .  A
C175        F176   1.359       .  S
C180        C181   1.408       .  A
C180        C185   1.383       .  A
C180        F187   1.360       .  S
C181        C182   1.406       .  A
C182        C183   1.409       .  A
C182        F189   1.357       .  S
C183        C184   1.408       .  A
C183        F188   1.357   1_455  S
C184        C185   1.397       .  A
C185        F186   1.360       .  S
C190        C191   1.413       .  A
C190        C195   1.413       .  A
C190        F197   1.357       .  S
C191        C192   1.415       .  A
C192        C193   1.403       .  A
C192        F199   1.358       .  S
C193        C194   1.405       .  A
C193        F198   1.359       .  S
C194        C195   1.408       .  A
C195        F196   1.357       .  S
C200        C201   1.404       .  A
C200        C205   1.400       .  A
C200        F207   1.358       .  S
C201        C202   1.400       .  A
C202        C203   1.389       .  A
C202        F209   1.358       .  S
C203        C204   1.404       .  A
C203        F208   1.359       .  S
C204        C205   1.403       .  A
C205        F206   1.358       .  S
C210        C211   1.412       .  A
C210        C215   1.421       .  A
C210        F217   1.357       .  S
C211        C212   1.407       .  A
C212        C213   1.389       .  A
C212        F219   1.359       .  S
C213        C214   1.405       .  A
C213        F218   1.359       .  S
C214        C215   1.413       .  A
C215        F216   1.354       .  S
C220        C221   1.423       .  A
C220        C225   1.384       .  A
C220        F227   1.357       .  S
C221        C222   1.407       .  A
C222        C223   1.413       .  A
C222        F229   1.356       .  S
C223        C224   1.414       .  A
C223        F228   1.357       .  S
C224        C302   1.492       .  S
C224        C225   1.392       .  A
C225        F525   1.359       .  S
F226        C524   1.359       .  S
C230        C231   1.421       .  A
C230        C235   1.383       .  A
C230        F237   1.357       .  S
C231        C232   1.407       .  A
C232        C233   1.412       .  A
C232        F239   1.357       .  S
C233        C234   1.414       .  A
C233        F238   1.357       .  S
C234        C235   1.391       .  A
C235        F236   1.359       .  S
C240        C241   1.390       .  A
C240        C245   1.382       .  A
C240        F247   1.359       .  S
C241        C242   1.413       .  A
C242        C243   1.411       .  A
C242        F249   1.357       .  S
C243        C244   1.406       .  A
C243        F248   1.357       .  S
C244        C245   1.423       .  A
C245        F246   1.357       .  S
C250        C251   1.414       .  A
C250        C255   1.413       .  A
C250        F257   1.357       .  S
C251        C303   1.491   1_545  S
C251        C252   1.392       .  A
C252        C253   1.384       .  A
C252        F259   1.359       .  S
C253        C254   1.422       .  A
C253        F258   1.358       .  S
C254        C255   1.407       .  A
C255        F256   1.356       .  S
C260        C261   1.431       .  A
C260        C265   1.388       .  A
C260        F267   1.354       .  S
C261        C600   1.534       .  S
C261        C262   1.424       .  A
C262        C263   1.411       .  A
C262        F269   1.352       .  S
C263        C264   1.402       .  A
C263        F268   1.357       .  S
C264        C265   1.389       .  A
C265        F266   1.360       .  S
C270        C271   1.410       .  A
C270        C275   1.405       .  A
C270        F277   1.357       .  S
C271        C272   1.403       .  A
C272        C273   1.391       .  A
C272        F279   1.356       .  S
C273        C274   1.408       .  A
C273        F278   1.358       .  S
C274        C275   1.403       .  A
C275        F276   1.357       .  S
C280        C281   1.408       .  A
C280        C285   1.420       .  A
C280        F287   1.357       .  S
C281        C282   1.401       .  A
C282        C283   1.382       .  A
C282        F289   1.361       .  S
C283        C284   1.415       .  A
C283        F288   1.354       .  S
C284        C285   1.421       .  A
C285        F286   1.356       .  S
C290        C291   1.404       .  A
C290        C295   1.403       .  A
C290        F297   1.357       .  S
C291        C292   1.412       .  A
C292        C293   1.390       .  A
C292        F299   1.355       .  S
C293        C294   1.396       .  A
C293        F298   1.358       .  S
C294        C599   1.492       .  S
C294        C295   1.411       .  A
C295        F296   1.358       .  S
C300        C583   1.521       .  S
C300       C1191   1.492       .  S
C300        C899   1.373       .  D
C301       C1158   1.534   1_455  S
C301        C570   1.496       .  S
C301        C898   1.373       .  D
C302        C533   1.488       .  S
C303        C540   1.486       .  S
C304        N322   1.339       .  A
C304        C341   1.472       .  S
C304        C590   1.479       .  S
N305        N322   1.315       .  A
N305        N327   1.320       .  A
N305       Co342   2.035       .  S
C306        N331   1.323       .  A
C306        C344   1.440       .  S
C306        H351   1.081       .  S
H307        C348   1.081       .  S
C308        N332   1.362       .  A
C308        C312   1.486       .  S
C308        H337   1.080       .  S
Co309       N327   2.135       .  S
Co309       N317   2.002       .  S
Co309       N349   2.000       .  S
Co309       N325   2.153       .  S
Co309      Cl353   2.428       .  S
N310        C348   1.364       .  A
N310        N317   1.310       .  A
N310       Co311   2.134       .  S
Co311       N314   2.021       .  S
Co311       N331   2.033       .  S
Co311       N318   2.113       .  S
Co311      Cl353   2.438       .  S
C312        N350   1.337       .  A
C312        C580   1.485       .  S
N313        N320   1.316       .  A
N313        N343   1.305       .  A
N313       Co346   2.001       .  S
N314        N332   1.317       .  A
N314        N350   1.309       .  A
N315        C344   1.370       .  A
N315        N325   1.341       .  A
H316        C341   1.076       .  S
N317        N338   1.304       .  A
N318        N336   1.318       .  A
N318        N323   1.330       .  A
C319        N323   1.353       .  A
C319        C347   1.442       .  S
C319        C503   1.457       .  S
N320        C335   1.365       .  A
N320       Co342   2.158       .  S
C321        N349   1.313       .  A
C321        C324   1.432       .  S
C321        H355   1.082       .  S
C324        N345   1.365       .  A
C324        C480   1.468       .  S
N325        N331   1.316       .  A
N326        C352   1.331       .  A
N326        N328   1.320       .  A
N326       Co342   2.053       .  S
N327        C341   1.354       .  A
N328        N356   1.338       .  A
N328       Co346   2.153       .  S
H329        C352   1.082       .  S
H330        C347   1.082       .  S
N332       Co346   2.156       .  S
N333        N345   1.336       .  A
N333        N349   1.317       .  A
N333       Co342   2.133       .  S
C334        N338   1.329       .  A
C334        C348   1.492       .  S
C334        C543   1.492       .  S
C335        C354   1.494       .  S
C335        H339   1.079       .  S
N336        C347   1.325       .  A
N336       Co346   2.024       .  S
C340        N356   1.367       .  A
C340        C352   1.446       .  S
C340        C493   1.489       .  S
Co342      Cl353   2.453       .  S
N343        C354   1.328       .  A
C344        C510   1.491       .  S
Co346      Cl353   2.447       .  S
C354        C553   1.495       .  S
C357        N375   1.338       .  A
C357        C394   1.471       .  S
C357        C573   1.473       .  S
N358        N375   1.314       .  A
N358        N380   1.321       .  A
N358       Co395   2.031       .  S
C359        N384   1.329       .  A
C359        C397   1.441       .  S
C359        H404   1.081       .  S
H360        C401   1.081       .  S
C361        N385   1.353       .  A
C361        C365   1.472       .  S
C361        H390   1.078       .  S
Co362       N380   2.141       .  S
Co362       N370   2.016       .  S
Co362       N402   2.022       .  S
Co362       N378   2.147       .  S
Co362      Cl406   2.422       .  S
N363        C401   1.363       .  A
N363        N370   1.312       .  A
N363       Co364   2.128       .  S
Co364       N367   2.040       .  S
Co364       N384   2.048       .  S
Co364       N371   2.107       .  S
Co364      Cl406   2.459       .  S
C365        N403   1.341       .  A
C365        C563   1.470       .  S
N366        N373   1.314       .  A
N366        N396   1.305       .  A
N366       Co399   2.006       .  S
N367        N385   1.320       .  A
N367        N403   1.316       .  A
N368        C397   1.368       .  A
N368        N378   1.339       .  A
H369        C394   1.076       .  S
N370        N391   1.305       .  A
N371        N389   1.318       .  A
N371        N376   1.329       .  A
C372        N376   1.352       .  A
C372        C400   1.443       .  S
C372        C473   1.457       .  S
N373        C388   1.366       .  A
N373       Co395   2.150       .  S
C374        N402   1.322       .  A
C374        C377   1.440       .  S
C374        H408   1.082       .  S
C377        N398   1.358       .  A
C377        C450   1.465       .  S
N378        N384   1.319       .  A
N379        C405   1.332       .  A
N379        N381   1.320       .  A
N379       Co395   2.056       .  S
N380        C394   1.355       .  A
N381        N409   1.337       .  A
N381       Co399   2.145       .  S
H382        C405   1.081       .  S
H383        C400   1.082       .  S
N385       Co399   2.138       .  S
N386        N398   1.331       .  A
N386        N402   1.318       .  A
N386       Co395   2.117       .  S
C387        N391   1.330       .  A
C387        C401   1.491       .  S
C387        C530   1.492       .  S
C388        C407   1.494       .  S
C388        H392   1.081       .  S
N389        C400   1.324       .  A
N389       Co399   2.028       .  S
C393        N409   1.365       .  A
C393        C405   1.444       .  S
C393        C443   1.486       .  S
Co395      Cl406   2.457       .  S
N396        C407   1.329       .  A
C397        C460   1.490       .  S
Co399      Cl406   2.433       .  S
C407        C520   1.496       .  S
O410        C418   1.256       .  A
O410       Co430   1.827       .  S
O411        C419   1.257       .  A
O411       Co431   1.842       .  S
O412        C420   1.275       .  A
O413        C421   1.278       .  A
O414        C420   1.274       .  A
O414       Co431   1.994   1_556  S
O415        C421   1.273       .  A
O415       Co430   1.983   1_554  S
O416        C419   1.306       .  A
O416       Co433   2.132   1_455  S
O417        C418   1.308       .  A
O417       Co432   2.142   1_465  S
C418        C483   1.457       .  S
C419        C453   1.480       .  S
C420        C490   1.506       .  S
C421        C440   1.496       .  S
O422        C435   1.243       .  A
O422      Co1028   1.971   1_554  S
O423        C436   1.247       .  A
O423      Co1029   1.981   1_556  S
O424        C437   1.246       .  A
O424      Co1030   1.932   1_565  S
O425        C438   1.250       .  A
O425      Co1031   1.928       .  S
O426        C438   1.282       .  A
O426      Co1029   2.087       .  S
O427        C437   1.279       .  A
O427      Co1028   2.083       .  S
O428        C435   1.254       .  A
O428       Co732   1.985   1_565  S
O429        C436   1.255       .  A
O429       Co731   1.983       .  S
Co430      O1020   1.971   1_556  S
Co430      O1025   2.083   1_455  S
Co431      O1021   1.981   1_554  S
Co431      O1024   2.087   1_455  S
Co431       O434   1.940   1_455  S
Co432      O1022   1.932   1_545  S
Co432       O728   1.983       .  S
Co433      O1023   1.928       .  S
Co433       O727   1.985       .  S
Co433       O434   2.103       .  S
C435        C470   1.457       .  S
C436        C500   1.458       .  S
C437        C513   1.488       .  S
C438        C463   1.501       .  S
C439        C440   1.410       .  A
C439        C444   1.405       .  A
C439        F446   1.357       .  S
C440        C441   1.411       .  A
C441        C442   1.409       .  A
C441        F448   1.358   1_565  S
C442        C443   1.406       .  A
C442        F447   1.357       .  S
C443        C444   1.407       .  A
C444        F445   1.358       .  S
C449        C450   1.411       .  A
C449        C454   1.397       .  A
C449        F456   1.359       .  S
C450        C451   1.394       .  A
C451        C452   1.395       .  A
C451        F458   1.358       .  S
C452        C453   1.418       .  A
C452        F457   1.358       .  S
C453        C454   1.402       .  A
C454        F455   1.358       .  S
C459        C460   1.414       .  A
C459        C464   1.405       .  A
C459        F466   1.358       .  S
C460        C461   1.400       .  A
C461        C462   1.407       .  A
C461        F468   1.358       .  S
C462        C463   1.421       .  A
C462        F467   1.358       .  S
C463        C464   1.405       .  A
C464        F465   1.358       .  S
C469        C470   1.396       .  A
C469        C474   1.387       .  A
C469        F476   1.354       .  S
C470        C471   1.404       .  A
C471        C472   1.401       .  A
C471        F478   1.358       .  S
C472        C473   1.404       .  A
C472        F477   1.358       .  S
C473        C474   1.403       .  A
C474        F475   1.359       .  S
C479        C480   1.408       .  A
C479        C484   1.383       .  A
C479        F486   1.360       .  S
C480        C481   1.406       .  A
C481        C482   1.409       .  A
C481        F488   1.357       .  S
C482        C483   1.408       .  A
C482        F487   1.357   1_455  S
C483        C484   1.397       .  A
C484        F485   1.360       .  S
C489        C490   1.413       .  A
C489        C494   1.413       .  A
C489        F496   1.357       .  S
C490        C491   1.415       .  A
C491        C492   1.403       .  A
C491        F498   1.358       .  S
C492        C493   1.405       .  A
C492        F497   1.359       .  S
C493        C494   1.408       .  A
C494        F495   1.357       .  S
C499        C500   1.404       .  A
C499        C504   1.400       .  A
C499        F506   1.358       .  S
C500        C501   1.400       .  A
C501        C502   1.389       .  A
C501        F508   1.358       .  S
C502        C503   1.404       .  A
C502        F507   1.359       .  S
C503        C504   1.403       .  A
C504        F505   1.358       .  S
C509        C510   1.412       .  A
C509        C514   1.421       .  A
C509        F516   1.357       .  S
C510        C511   1.407       .  A
C511        C512   1.389       .  A
C511        F518   1.359       .  S
C512        C513   1.405       .  A
C512        F517   1.359       .  S
C513        C514   1.413       .  A
C514        F515   1.354       .  S
C519        C520   1.423       .  A
C519        C524   1.384       .  A
C519        F526   1.357       .  S
C520        C521   1.407       .  A
C521        C522   1.413       .  A
C521        F528   1.356       .  S
C522        C523   1.414       .  A
C522        F527   1.357       .  S
C523        C524   1.392       .  A
C529        C530   1.421       .  A
C529        C534   1.383       .  A
C529        F536   1.357       .  S
C530        C531   1.407       .  A
C531        C532   1.412       .  A
C531        F538   1.357       .  S
C532        C533   1.414       .  A
C532        F537   1.357       .  S
C533        C534   1.391       .  A
C534        F535   1.359       .  S
C539        C540   1.390       .  A
C539        C544   1.382       .  A
C539        F546   1.359       .  S
C540        C541   1.413       .  A
C541        C542   1.411       .  A
C541        F548   1.357       .  S
C542        C543   1.406       .  A
C542        F547   1.357       .  S
C543        C544   1.423       .  A
C544        F545   1.357       .  S
C549        C550   1.414       .  A
C549        C554   1.413       .  A
C549        F556   1.357       .  S
C550        C551   1.392       .  A
C551        C552   1.384       .  A
C551        F558   1.359       .  S
C552        C553   1.422       .  A
C552        F557   1.358       .  S
C553        C554   1.407       .  A
C554        F555   1.356       .  S
C559        C560   1.431       .  A
C559        C564   1.388       .  A
C559        F566   1.354       .  S
C560        C899   1.534       .  S
C560        C561   1.424       .  A
C561        C562   1.411       .  A
C561        F568   1.352       .  S
C562        C563   1.402       .  A
C562        F567   1.357       .  S
C563        C564   1.389       .  A
C564        F565   1.360       .  S
C569        C570   1.410       .  A
C569        C574   1.405       .  A
C569        F576   1.357       .  S
C570        C571   1.403       .  A
C571        C572   1.391       .  A
C571        F578   1.356       .  S
C572        C573   1.408       .  A
C572        F577   1.358       .  S
C573        C574   1.403       .  A
C574        F575   1.357       .  S
C579        C580   1.408       .  A
C579        C584   1.420       .  A
C579        F586   1.357       .  S
C580        C581   1.401       .  A
C581        C582   1.382       .  A
C581        F588   1.361       .  S
C582        C583   1.415       .  A
C582        F587   1.354       .  S
C583        C584   1.421       .  A
C584        F585   1.356       .  S
C589        C590   1.404       .  A
C589        C594   1.403       .  A
C589        F596   1.357       .  S
C590        C591   1.412       .  A
C591        C592   1.390       .  A
C591        F598   1.355       .  S
C592        C593   1.396       .  A
C592        F597   1.358       .  S
C593        C898   1.492       .  S
C593        C594   1.411       .  A
C594        F595   1.358       .  S
C599        C882   1.521   1_455  S
C600        C869   1.496       .  S
C601       C1121   1.492   1_545  S
C601        C832   1.488       .  S
C601        C901   1.348   1_545  D
C602        C839   1.486       .  S
C602       C1148   1.491       .  S
C602        C900   1.348       .  D
C603        N621   1.339       .  A
C603        C640   1.472       .  S
C603        C889   1.479       .  S
N604        N621   1.315       .  A
N604        N626   1.320       .  A
N604       Co641   2.035       .  S
C605        N630   1.323       .  A
C605        C643   1.440       .  S
C605        H650   1.081       .  S
H606        C647   1.081       .  S
C607        N631   1.362       .  A
C607        C611   1.486       .  S
C607        H636   1.080       .  S
Co608       N626   2.135       .  S
Co608       N616   2.002       .  S
Co608       N648   2.000       .  S
Co608       N624   2.153       .  S
Co608      Cl652   2.428       .  S
N609        C647   1.364       .  A
N609        N616   1.310       .  A
N609       Co610   2.134       .  S
Co610       N613   2.021       .  S
Co610       N630   2.033       .  S
Co610       N617   2.113       .  S
Co610      Cl652   2.438       .  S
C611        N649   1.337       .  A
C611        C879   1.485       .  S
N612        N619   1.316       .  A
N612        N642   1.305       .  A
N612       Co645   2.001       .  S
N613        N631   1.317       .  A
N613        N649   1.309       .  A
N614        C643   1.370       .  A
N614        N624   1.341       .  A
H615        C640   1.076       .  S
N616        N637   1.304       .  A
N617        N635   1.318       .  A
N617        N622   1.330       .  A
C618        N622   1.353       .  A
C618        C646   1.442       .  S
C618        C802   1.457       .  S
N619        C634   1.365       .  A
N619       Co641   2.158       .  S
C620        N648   1.313       .  A
C620        C623   1.432       .  S
C620        H654   1.082       .  S
C623        N644   1.365       .  A
C623        C779   1.468       .  S
N624        N630   1.316       .  A
N625        C651   1.331       .  A
N625        N627   1.320       .  A
N625       Co641   2.053       .  S
N626        C640   1.354       .  A
N627        N655   1.338       .  A
N627       Co645   2.153       .  S
H628        C651   1.082       .  S
H629        C646   1.082       .  S
N631       Co645   2.156       .  S
N632        N644   1.336       .  A
N632        N648   1.317       .  A
N632       Co641   2.133       .  S
C633        N637   1.329       .  A
C633        C647   1.492       .  S
C633        C842   1.492       .  S
C634        C653   1.494       .  S
C634        H638   1.079       .  S
N635        C646   1.325       .  A
N635       Co645   2.024       .  S
C639        N655   1.367       .  A
C639        C651   1.446       .  S
C639        C792   1.489       .  S
Co641      Cl652   2.453       .  S
N642        C653   1.328       .  A
C643        C809   1.491       .  S
Co645      Cl652   2.447       .  S
C653        C852   1.495       .  S
C656        N674   1.338       .  A
C656        C693   1.471       .  S
C656        C872   1.473       .  S
N657        N674   1.314       .  A
N657        N679   1.321       .  A
N657       Co694   2.031       .  S
C658        N683   1.329       .  A
C658        C696   1.441       .  S
C658        H703   1.081       .  S
H659        C700   1.081       .  S
C660        N684   1.353       .  A
C660        C664   1.472       .  S
C660        H689   1.078       .  S
Co661       N679   2.141       .  S
Co661       N669   2.016       .  S
Co661       N701   2.022       .  S
Co661       N677   2.147       .  S
Co661      Cl705   2.422       .  S
N662        C700   1.363       .  A
N662        N669   1.312       .  A
N662       Co663   2.128       .  S
Co663       N666   2.040       .  S
Co663       N683   2.048       .  S
Co663       N670   2.107       .  S
Co663      Cl705   2.459       .  S
C664        N702   1.341       .  A
C664        C862   1.470       .  S
N665        N672   1.314       .  A
N665        N695   1.305       .  A
N665       Co698   2.006       .  S
N666        N684   1.320       .  A
N666        N702   1.316       .  A
N667        C696   1.368       .  A
N667        N677   1.339       .  A
H668        C693   1.076       .  S
N669        N690   1.305       .  A
N670        N688   1.318       .  A
N670        N675   1.329       .  A
C671        N675   1.352       .  A
C671        C699   1.443       .  S
C671        C772   1.457       .  S
N672        C687   1.366       .  A
N672       Co694   2.150       .  S
C673        N701   1.322       .  A
C673        C676   1.440       .  S
C673        H707   1.082       .  S
C676        N697   1.358       .  A
C676        C749   1.465       .  S
N677        N683   1.319       .  A
N678        C704   1.332       .  A
N678        N680   1.320       .  A
N678       Co694   2.056       .  S
N679        C693   1.355       .  A
N680        N708   1.337       .  A
N680       Co698   2.145       .  S
H681        C704   1.081       .  S
H682        C699   1.082       .  S
N684       Co698   2.138       .  S
N685        N697   1.331       .  A
N685        N701   1.318       .  A
N685       Co694   2.117       .  S
C686        N690   1.330       .  A
C686        C700   1.491       .  S
C686        C829   1.492       .  S
C687        C706   1.494       .  S
C687        H691   1.081       .  S
N688        C699   1.324       .  A
N688       Co698   2.028       .  S
C692        N708   1.365       .  A
C692        C704   1.444       .  S
C692        C742   1.486       .  S
Co694      Cl705   2.457       .  S
N695        C706   1.329       .  A
C696        C759   1.490       .  S
Co698      Cl705   2.433       .  S
C706        C819   1.496       .  S
O709        C717   1.256       .  A
O709       Co729   1.827       .  S
O710        C718   1.257       .  A
O710       Co730   1.842       .  S
O711        C719   1.275       .  A
O711      Co1030   2.017       .  S
O712        C720   1.278       .  A
O712      Co1031   2.027       .  S
O713        C719   1.274       .  A
O713       Co730   1.994   1_556  S
O714        C720   1.273       .  A
O714       Co729   1.983   1_554  S
O715        C718   1.306       .  A
O715       Co732   2.132       .  S
O716        C717   1.308       .  A
O716       Co731   2.142       .  S
C717        C782   1.457       .  S
C718        C752   1.480       .  S
C719        C789   1.506       .  S
C720        C739   1.496       .  S
O721        C734   1.243   1_455  A
O722        C735   1.247   1_455  A
O723        C736   1.246       .  A
O724        C737   1.250       .  A
O725        C737   1.282       .  A
O726        C736   1.279       .  A
O727        C734   1.254       .  A
O728        C735   1.255       .  A
Co729      O1032   1.944   1_556  S
Co730       O733   1.940       .  S
Co731      O1010   2.017       .  S
Co731      O1032   2.089   1_556  S
Co732      O1011   2.027   1_545  S
Co732       O733   2.103       .  S
O733      Co1028   1.944   1_544  S
O733      Co1030   2.089   1_554  S
C734        C769   1.457       .  S
C735        C799   1.458       .  S
C736        C812   1.488       .  S
C737        C762   1.501       .  S
C738        C739   1.410       .  A
C738        C743   1.405       .  A
C738        F745   1.357       .  S
C739        C740   1.411       .  A
C740        C741   1.409       .  A
C740        F747   1.358       .  S
C741        C742   1.406       .  A
C741        F746   1.357       .  S
C742        C743   1.407       .  A
C743        F744   1.358       .  S
C748        C749   1.411       .  A
C748        C753   1.397       .  A
C748        F755   1.359       .  S
C749        C750   1.394       .  A
C750        C751   1.395       .  A
C750        F757   1.358       .  S
C751        C752   1.418       .  A
C751        F756   1.358       .  S
C752        C753   1.402       .  A
C753        F754   1.358       .  S
C758        C759   1.414       .  A
C758        C763   1.405       .  A
C758        F765   1.358       .  S
C759        C760   1.400       .  A
C760        C761   1.407       .  A
C760        F767   1.358       .  S
C761        C762   1.421       .  A
C761        F766   1.358       .  S
C762        C763   1.405       .  A
C763        F764   1.358       .  S
C768        C769   1.396       .  A
C768        C773   1.387       .  A
C768        F775   1.354       .  S
C769        C770   1.404       .  A
C770        C771   1.401       .  A
C770        F777   1.358   1_655  S
C771        C772   1.404       .  A
C771        F776   1.358       .  S
C772        C773   1.403       .  A
C773        F774   1.359       .  S
C778        C779   1.408       .  A
C778        C783   1.383       .  A
C778        F785   1.360       .  S
C779        C780   1.406       .  A
C780        C781   1.409       .  A
C780        F787   1.357       .  S
C781        C782   1.408       .  A
C781        F786   1.357       .  S
C782        C783   1.397       .  A
C783        F784   1.360       .  S
C788        C789   1.413       .  A
C788        C793   1.413       .  A
C788        F795   1.357       .  S
C789        C790   1.415       .  A
C790        C791   1.403       .  A
C790        F797   1.358       .  S
C791        C792   1.405       .  A
C791        F796   1.359       .  S
C792        C793   1.408       .  A
C793        F794   1.357       .  S
C798        C799   1.404       .  A
C798        C803   1.400       .  A
C798        F805   1.358   1_655  S
C799        C800   1.400       .  A
C800        C801   1.389       .  A
C800        F807   1.358       .  S
C801        C802   1.404       .  A
C801        F806   1.359       .  S
C802        C803   1.403       .  A
C803        F804   1.358       .  S
C808        C809   1.412       .  A
C808        C813   1.421       .  A
C808        F815   1.357       .  S
C809        C810   1.407       .  A
C810        C811   1.389       .  A
C810        F817   1.359       .  S
C811        C812   1.405       .  A
C811        F816   1.359       .  S
C812        C813   1.413       .  A
C813        F814   1.354       .  S
C818        C819   1.423       .  A
C818        C823   1.384       .  A
C818        F825   1.357       .  S
C819        C820   1.407       .  A
C820        C821   1.413       .  A
C820        F827   1.356       .  S
C821        C822   1.414       .  A
C821        F826   1.357       .  S
C822        C900   1.492       .  S
C822        C823   1.392       .  A
C823       F1123   1.359       .  S
F824       C1122   1.359       .  S
C828        C829   1.421       .  A
C828        C833   1.383       .  A
C828        F835   1.357       .  S
C829        C830   1.407       .  A
C830        C831   1.412       .  A
C830        F837   1.357       .  S
C831        C832   1.414       .  A
C831        F836   1.357       .  S
C832        C833   1.391       .  A
C833        F834   1.359       .  S
C838        C839   1.390       .  A
C838        C843   1.382       .  A
C838        F845   1.359       .  S
C839        C840   1.413       .  A
C840        C841   1.411       .  A
C840        F847   1.357       .  S
C841        C842   1.406       .  A
C841        F846   1.357       .  S
C842        C843   1.423       .  A
C843        F844   1.357       .  S
C848        C849   1.414       .  A
C848        C853   1.413       .  A
C848        F855   1.357       .  S
C849        C901   1.491   1_545  S
C849        C850   1.392       .  A
C850        C851   1.384       .  A
C850        F857   1.359       .  S
C851        C852   1.422       .  A
C851        F856   1.358       .  S
C852        C853   1.407       .  A
C853        F854   1.356       .  S
C858        C859   1.431       .  A
C858        C863   1.388       .  A
C858        F865   1.354   1_655  S
C859        C860   1.424       .  A
C860        C861   1.411       .  A
C860        F867   1.352       .  S
C861        C862   1.402       .  A
C861        F866   1.357       .  S
C862        C863   1.389       .  A
C863        F864   1.360       .  S
C868        C869   1.410       .  A
C868        C873   1.405       .  A
C868        F875   1.357       .  S
C869        C870   1.403       .  A
C870        C871   1.391       .  A
C870        F877   1.356       .  S
C871        C872   1.408       .  A
C871        F876   1.358       .  S
C872        C873   1.403       .  A
C873        F874   1.357       .  S
C878        C879   1.408       .  A
C878        C883   1.420       .  A
C878        F885   1.357       .  S
C879        C880   1.401       .  A
C880        C881   1.382       .  A
C880        F887   1.361       .  S
C881        C882   1.415       .  A
C881        F886   1.354       .  S
C882        C883   1.421       .  A
C883        F884   1.356       .  S
C888        C889   1.404       .  A
C888        C893   1.403       .  A
C888        F895   1.357       .  S
C889        C890   1.412       .  A
C890        C891   1.390       .  A
C890        F897   1.355       .  S
C891        C892   1.396       .  A
C891        F896   1.358       .  S
C892        C893   1.411       .  A
C893        F894   1.358       .  S
C898       C1181   1.521   1_455  S
C899       C1168   1.496       .  S
C900       C1131   1.488       .  S
C901       C1138   1.486       .  S
C902        N920   1.339       .  A
C902        C939   1.472       .  S
C902       C1188   1.479       .  S
N903        N920   1.315       .  A
N903        N925   1.320       .  A
N903       Co940   2.035       .  S
C904        N929   1.323       .  A
C904        C942   1.440       .  S
C904        H949   1.081       .  S
H905        C946   1.081       .  S
C906        N930   1.362       .  A
C906        C910   1.486       .  S
C906        H935   1.080       .  S
Co907       N925   2.135       .  S
Co907       N915   2.002       .  S
Co907       N947   2.000       .  S
Co907       N923   2.153       .  S
Co907      Cl951   2.428       .  S
N908        C946   1.364       .  A
N908        N915   1.310       .  A
N908       Co909   2.134       .  S
Co909       N912   2.021       .  S
Co909       N929   2.033       .  S
Co909       N916   2.113       .  S
Co909      Cl951   2.438       .  S
C910        N948   1.337       .  A
C910       C1178   1.485       .  S
N911        N918   1.316       .  A
N911        N941   1.305       .  A
N911       Co944   2.001       .  S
N912        N930   1.317       .  A
N912        N948   1.309       .  A
N913        C942   1.370       .  A
N913        N923   1.341       .  A
H914        C939   1.076       .  S
N915        N936   1.304       .  A
N916        N934   1.318       .  A
N916        N921   1.330       .  A
C917        N921   1.353       .  A
C917        C945   1.442       .  S
C917       C1101   1.457       .  S
N918        C933   1.365       .  A
N918       Co940   2.158       .  S
C919        N947   1.313       .  A
C919        C922   1.432       .  S
C919        H953   1.082       .  S
C922        N943   1.365       .  A
C922       C1078   1.468       .  S
N923        N929   1.316       .  A
N924        C950   1.331       .  A
N924        N926   1.320       .  A
N924       Co940   2.053       .  S
N925        C939   1.354       .  A
N926        N954   1.338       .  A
N926       Co944   2.153       .  S
H927        C950   1.082       .  S
H928        C945   1.082       .  S
N930       Co944   2.156       .  S
N931        N943   1.336       .  A
N931        N947   1.317       .  A
N931       Co940   2.133       .  S
C932        N936   1.329       .  A
C932        C946   1.492       .  S
C932       C1141   1.492       .  S
C933        C952   1.494       .  S
C933        H937   1.079       .  S
N934        C945   1.325       .  A
N934       Co944   2.024       .  S
C938        N954   1.367       .  A
C938        C950   1.446       .  S
C938       C1091   1.489       .  S
Co940      Cl951   2.453       .  S
N941        C952   1.328       .  A
C942       C1108   1.491       .  S
Co944      Cl951   2.447       .  S
C952       C1151   1.495       .  S
C955        N973   1.338       .  A
C955        C992   1.471       .  S
C955       C1171   1.473       .  S
N956        N973   1.314       .  A
N956        N978   1.321       .  A
N956       Co993   2.031       .  S
C957        N982   1.329       .  A
C957        C995   1.441       .  S
C957       H1002   1.081       .  S
H958        C999   1.081       .  S
C959        N983   1.353       .  A
C959        C963   1.472       .  S
C959        H988   1.078       .  S
Co960       N978   2.141       .  S
Co960       N968   2.016       .  S
Co960      N1000   2.022       .  S
Co960       N976   2.147       .  S
Co960     Cl1004   2.422       .  S
N961        C999   1.363       .  A
N961        N968   1.312       .  A
N961       Co962   2.128       .  S
Co962       N965   2.040       .  S
Co962       N982   2.048       .  S
Co962       N969   2.107       .  S
Co962     Cl1004   2.459       .  S
C963       N1001   1.341       .  A
C963       C1161   1.470       .  S
N964        N971   1.314       .  A
N964        N994   1.305       .  A
N964       Co997   2.006       .  S
N965        N983   1.320       .  A
N965       N1001   1.316       .  A
N966        C995   1.368       .  A
N966        N976   1.339       .  A
H967        C992   1.076       .  S
N968        N989   1.305       .  A
N969        N987   1.318       .  A
N969        N974   1.329       .  A
C970        N974   1.352       .  A
C970        C998   1.443       .  S
C970       C1071   1.457       .  S
N971        C986   1.366       .  A
N971       Co993   2.150       .  S
C972       N1000   1.322       .  A
C972        C975   1.440       .  S
C972       H1006   1.082       .  S
C975        N996   1.358       .  A
C975       C1048   1.465       .  S
N976        N982   1.319       .  A
N977       C1003   1.332       .  A
N977        N979   1.320       .  A
N977       Co993   2.056       .  S
N978        C992   1.355       .  A
N979       N1007   1.337       .  A
N979       Co997   2.145       .  S
H980       C1003   1.081       .  S
H981        C998   1.082       .  S
N983       Co997   2.138       .  S
N984        N996   1.331       .  A
N984       N1000   1.318       .  A
N984       Co993   2.117       .  S
C985        N989   1.330       .  A
C985        C999   1.491       .  S
C985       C1128   1.492       .  S
C986       C1005   1.494       .  S
C986        H990   1.081       .  S
N987        C998   1.324       .  A
N987       Co997   2.028       .  S
C991       N1007   1.365       .  A
C991       C1003   1.444       .  S
C991       C1041   1.486       .  S
Co993     Cl1004   2.457       .  S
N994       C1005   1.329       .  A
C995       C1058   1.490       .  S
Co997     Cl1004   2.433       .  S
C1005      C1118   1.496       .  S
O1008      C1016   1.256       .  A
O1008     Co1028   1.827       .  S
O1009      C1017   1.257       .  A
O1009     Co1029   1.842       .  S
O1010      C1018   1.275       .  A
O1011      C1019   1.278       .  A
O1012      C1018   1.274       .  A
O1012     Co1029   1.994   1_556  S
O1013      C1019   1.273       .  A
O1013     Co1028   1.983   1_554  S
O1014      C1017   1.306       .  A
O1014     Co1031   2.132       .  S
O1015      C1016   1.308       .  A
O1015     Co1030   2.142   1_565  S
C1016      C1081   1.457       .  S
C1017      C1051   1.480       .  S
C1018      C1088   1.506       .  S
C1019      C1038   1.496       .  S
O1020      C1033   1.243   1_455  A
O1021      C1034   1.247   1_455  A
O1022      C1035   1.246       .  A
O1023      C1036   1.250       .  A
O1024      C1036   1.282       .  A
O1025      C1035   1.279       .  A
O1026      C1033   1.254       .  A
O1027      C1034   1.255       .  A
Co1029     O1032   1.940       .  S
Co1031     O1032   2.103       .  S
C1033      C1068   1.457       .  S
C1034      C1098   1.458       .  S
C1035      C1111   1.488       .  S
C1036      C1061   1.501       .  S
C1037      C1038   1.410       .  A
C1037      C1042   1.405       .  A
C1037      F1044   1.357       .  S
C1038      C1039   1.411       .  A
C1039      C1040   1.409       .  A
C1039      F1046   1.358   1_565  S
C1040      C1041   1.406       .  A
C1040      F1045   1.357       .  S
C1041      C1042   1.407       .  A
C1042      F1043   1.358       .  S
C1047      C1048   1.411       .  A
C1047      C1052   1.397       .  A
C1047      F1054   1.359       .  S
C1048      C1049   1.394       .  A
C1049      C1050   1.395       .  A
C1049      F1056   1.358       .  S
C1050      C1051   1.418       .  A
C1050      F1055   1.358       .  S
C1051      C1052   1.402       .  A
C1052      F1053   1.358       .  S
C1057      C1058   1.414       .  A
C1057      C1062   1.405       .  A
C1057      F1064   1.358       .  S
C1058      C1059   1.400       .  A
C1059      C1060   1.407       .  A
C1059      F1066   1.358       .  S
C1060      C1061   1.421       .  A
C1060      F1065   1.358       .  S
C1061      C1062   1.405       .  A
C1062      F1063   1.358       .  S
C1067      C1068   1.396       .  A
C1067      C1072   1.387       .  A
C1067      F1074   1.354       .  S
C1068      C1069   1.404       .  A
C1069      C1070   1.401       .  A
C1069      F1076   1.358   1_655  S
C1070      C1071   1.404       .  A
C1070      F1075   1.358       .  S
C1071      C1072   1.403       .  A
C1072      F1073   1.359       .  S
C1077      C1078   1.408       .  A
C1077      C1082   1.383       .  A
C1077      F1084   1.360       .  S
C1078      C1079   1.406       .  A
C1079      C1080   1.409       .  A
C1079      F1086   1.357       .  S
C1080      C1081   1.408       .  A
C1080      F1085   1.357       .  S
C1081      C1082   1.397       .  A
C1082      F1083   1.360       .  S
C1087      C1088   1.413       .  A
C1087      C1092   1.413       .  A
C1087      F1094   1.357       .  S
C1088      C1089   1.415       .  A
C1089      C1090   1.403       .  A
C1089      F1096   1.358       .  S
C1090      C1091   1.405       .  A
C1090      F1095   1.359       .  S
C1091      C1092   1.408       .  A
C1092      F1093   1.357       .  S
C1097      C1098   1.404       .  A
C1097      C1102   1.400       .  A
C1097      F1104   1.358   1_655  S
C1098      C1099   1.400       .  A
C1099      C1100   1.389       .  A
C1099      F1106   1.358       .  S
C1100      C1101   1.404       .  A
C1100      F1105   1.359       .  S
C1101      C1102   1.403       .  A
C1102      F1103   1.358       .  S
C1107      C1108   1.412       .  A
C1107      C1112   1.421       .  A
C1107      F1114   1.357       .  S
C1108      C1109   1.407       .  A
C1109      C1110   1.389       .  A
C1109      F1116   1.359       .  S
C1110      C1111   1.405       .  A
C1110      F1115   1.359       .  S
C1111      C1112   1.413       .  A
C1112      F1113   1.354       .  S
C1117      C1118   1.423       .  A
C1117      C1122   1.384       .  A
C1117      F1124   1.357       .  S
C1118      C1119   1.407       .  A
C1119      C1120   1.413       .  A
C1119      F1126   1.356       .  S
C1120      C1121   1.414       .  A
C1120      F1125   1.357       .  S
C1121      C1122   1.392       .  A
C1127      C1128   1.421       .  A
C1127      C1132   1.383       .  A
C1127      F1134   1.357       .  S
C1128      C1129   1.407       .  A
C1129      C1130   1.412       .  A
C1129      F1136   1.357       .  S
C1130      C1131   1.414       .  A
C1130      F1135   1.357       .  S
C1131      C1132   1.391       .  A
C1132      F1133   1.359       .  S
C1137      C1138   1.390       .  A
C1137      C1142   1.382       .  A
C1137      F1144   1.359       .  S
C1138      C1139   1.413       .  A
C1139      C1140   1.411       .  A
C1139      F1146   1.357       .  S
C1140      C1141   1.406       .  A
C1140      F1145   1.357       .  S
C1141      C1142   1.423       .  A
C1142      F1143   1.357       .  S
C1147      C1148   1.414       .  A
C1147      C1152   1.413       .  A
C1147      F1154   1.357       .  S
C1148      C1149   1.392       .  A
C1149      C1150   1.384       .  A
C1149      F1156   1.359       .  S
C1150      C1151   1.422       .  A
C1150      F1155   1.358       .  S
C1151      C1152   1.407       .  A
C1152      F1153   1.356       .  S
C1157      C1158   1.431       .  A
C1157      C1162   1.388       .  A
C1157      F1164   1.354   1_655  S
C1158      C1159   1.424       .  A
C1159      C1160   1.411       .  A
C1159      F1166   1.352       .  S
C1160      C1161   1.402       .  A
C1160      F1165   1.357       .  S
C1161      C1162   1.389       .  A
C1162      F1163   1.360       .  S
C1167      C1168   1.410       .  A
C1167      C1172   1.405       .  A
C1167      F1174   1.357       .  S
C1168      C1169   1.403       .  A
C1169      C1170   1.391       .  A
C1169      F1176   1.356       .  S
C1170      C1171   1.408       .  A
C1170      F1175   1.358       .  S
C1171      C1172   1.403       .  A
C1172      F1173   1.357       .  S
C1177      C1178   1.408       .  A
C1177      C1182   1.420       .  A
C1177      F1184   1.357       .  S
C1178      C1179   1.401       .  A
C1179      C1180   1.382       .  A
C1179      F1186   1.361       .  S
C1180      C1181   1.415       .  A
C1180      F1185   1.354       .  S
C1181      C1182   1.421       .  A
C1182      F1183   1.356       .  S
C1187      C1188   1.404       .  A
C1187      C1192   1.403       .  A
C1187      F1194   1.357       .  S
C1188      C1189   1.412       .  A
C1189      C1190   1.390       .  A
C1189      F1196   1.355       .  S
C1190      C1191   1.396       .  A
C1190      F1195   1.358       .  S
C1191      C1192   1.411       .  A
C1192      F1193   1.358       .  S
