geometry optimzed in LAMMPS
_audit_creation_date              2020-11-30 
_audit_creation_method            'lammps2cif' 
_symmetry_space_group_name_H-M    'P1' 
_symmetry_Int_Tables_number       1 
_symmetry_cell_setting            triclinic 
loop_ 
_symmetry_equiv_pos_as_xyz 
  x,y,z 
_cell_length_a                    42.12238698743271 
_cell_length_b                    42.11456069074288 
_cell_length_c                    42.07704661973263 
_cell_angle_alpha                 90.06903253137058 
_cell_angle_beta                  89.89667194353208 
_cell_angle_gamma                 89.98714511236463 
loop_ 
_atom_site_label 
_atom_site_type_symbol 
_atom_site_fract_x 
_atom_site_fract_y 
_atom_site_fract_z 
_atom_site_charge 
N1          N  0.43172402  0.68015700  0.99716092    -0.27370
N2          N  0.45122201  0.65602482  0.00062854    -0.35220
C3          C  0.43490775  0.62903956  0.00208810     0.00970
C4          C  0.40302275  0.63592888  0.99938077     0.07000
C5          C  0.40158431  0.66885999  0.99633712    -0.06100
H6          H  0.44589816  0.60599714  0.00461572     0.07670
H7          H  0.38053512  0.68327040  0.99340267     0.08870
Cu8        Cu  0.49927169  0.65968828  0.00201275     0.44170
Cu9        Cu  0.45267463  0.72478385  0.99419143     0.41990
Cu10       Cu  0.54623769  0.72567331  0.00166177     0.43880
N11         N  0.54735456  0.65627019  0.00147622    -0.34750
N12         N  0.56699150  0.68056088  0.00131147    -0.29010
C13         C  0.59713105  0.66914786  0.00062181    -0.05110
C14         C  0.59552982  0.63603610  0.00036464     0.07110
C15         C  0.56355370  0.62915570  0.00089076     0.00900
H16         H  0.61833349  0.68362916  0.00030502     0.08560
H17         H  0.55243742  0.60604020  0.00074345     0.07630
N18         N  0.51461354  0.76420042  0.00032380    -0.36200
N19         N  0.48331247  0.76370674  0.99649619    -0.28380
C20         C  0.47254208  0.79369927  0.99547085    -0.03620
C21         C  0.49778794  0.81432550  0.99960184     0.04990
C22         C  0.52404020  0.79463504  0.00233725     0.03080
H23         H  0.44804904  0.79951273  0.99114120     0.08190
H24         H  0.54845517  0.80188078  0.00559452     0.07020
N25         N  0.66490526  0.58288428  0.99764618    -0.27370
N26         N  0.64080040  0.56312503  0.99943851    -0.35220
C27         C  0.61364266  0.57922210  0.00075797     0.00970
C28         C  0.62036056  0.61125361  0.99974763     0.07000
C29         C  0.65339043  0.61298276  0.99779952    -0.06100
H30         H  0.59061912  0.56801857  0.00231994     0.07670
H31         H  0.66774539  0.63423249  0.99653035     0.08870
Cu32       Cu  0.64499655  0.51505554  0.99994529     0.44170
Cu33       Cu  0.70987067  0.56219072  0.99567928     0.41990
Cu34       Cu  0.71140048  0.46851013  0.00293966     0.43880
N35         N  0.64210934  0.46690549  0.00071094    -0.34750
N36         N  0.66648988  0.44742574  0.00210994    -0.29010
C37         C  0.65526551  0.41719915  0.00248892    -0.05110
C38         C  0.62217135  0.41857493  0.00123410     0.07110
C39         C  0.61513844  0.45052370  0.00012134     0.00900
H40         H  0.66985978  0.39609488  0.00358965     0.08560
H41         H  0.59199721  0.46153902  0.99907127     0.07630
N42         N  0.74972077  0.50031760  0.00117504    -0.36200
N43         N  0.74907816  0.53165192  0.99750802    -0.28380
C44         C  0.77905465  0.54247105  0.99617939    -0.03620
C45         C  0.79978901  0.51722122  0.99994802     0.04990
C46         C  0.78018963  0.49092862  0.00275466     0.03080
H47         H  0.78480408  0.56701500  0.99194493     0.08190
H48         H  0.78752584  0.46650933  0.00584922     0.07020
N49         N  0.56879864  0.34917994  0.00241979    -0.27370
N50         N  0.54924896  0.37348416  0.00068836    -0.35220
C51         C  0.56548897  0.40052760  0.99988489     0.00970
C52         C  0.59743857  0.39366736  0.00121409     0.07000
C53         C  0.59896731  0.36056958  0.00279856    -0.06100
H54         H  0.55436359  0.42360422  0.99858593     0.07670
H55         H  0.62013508  0.34609264  0.00418837     0.08870
Cu56       Cu  0.50119506  0.37056618  0.99997235     0.44170
Cu57       Cu  0.54778055  0.30415191  0.00368417     0.41990
Cu58       Cu  0.45421593  0.30591612  0.99582952     0.43880
N59         N  0.45321874  0.37482198  0.99967728    -0.34750
N60         N  0.43353798  0.35066047  0.99796380    -0.29010
C61         C  0.40342691  0.36200660  0.99814065    -0.05110
C62         C  0.40507520  0.39500317  0.99996468     0.07110
C63         C  0.43704069  0.40192649  0.00093809     0.00900
H64         H  0.38224147  0.34756544  0.99680659     0.08560
H65         H  0.44811163  0.42502684  0.00239069     0.07630
N66         N  0.48452203  0.26677503  0.99760484    -0.36200
N67         N  0.51577122  0.26590435  0.00169113    -0.28380
C68         C  0.52484207  0.23533283  0.00322507    -0.03620
C69         C  0.49841458  0.21591581  0.99981164     0.04990
C70         C  0.47345024  0.23694145  0.99585746     0.03080
H71         H  0.54915263  0.22783378  0.00665210     0.08190
H72         H  0.44892072  0.23161091  0.99124095     0.07020
N73         N  0.33365763  0.58278947  0.99810755    -0.27370
N74         N  0.35792865  0.56316146  0.99904056    -0.35220
C75         C  0.38502660  0.57929212  0.99955536     0.00970
C76         C  0.37818367  0.61124438  0.99889732     0.07000
C77         C  0.34509467  0.61292113  0.99793271    -0.06100
H78         H  0.40810733  0.56811204  0.00027684     0.07670
H79         H  0.33065375  0.63415221  0.99733493     0.08870
Cu80       Cu  0.35474362  0.51523753  0.99957033     0.44170
Cu81       Cu  0.28868989  0.56184584  0.99769047     0.41990
Cu82       Cu  0.29048278  0.46793751  0.00378067     0.43880
N83         N  0.35940456  0.46741856  0.00015988    -0.34750
N84         N  0.33544738  0.44749859  0.00189773    -0.29010
C85         C  0.34717126  0.41751527  0.00188396    -0.05110
C86         C  0.38017085  0.41956099  0.00014276     0.07110
C87         C  0.38669867  0.45158408  0.99905647     0.00900
H88         H  0.33299152  0.39615532  0.00322909     0.08560
H89         H  0.40965983  0.46294314  0.99758346     0.07630
N90         N  0.25132204  0.49838544  0.00200405    -0.36200
N91         N  0.25054357  0.52980582  0.99901299    -0.28380
C92         C  0.22002794  0.53907258  0.99753439    -0.03620
C93         C  0.20067542  0.51258142  0.99954337     0.04990
C94         C  0.22141574  0.48736000  0.00285451     0.03080
H95         H  0.21246361  0.56349831  0.99509074     0.08190
H96         H  0.21560594  0.46271217  0.00655578     0.07020
N97         N  0.99936761  0.58261931  0.66625284    -0.27370
N98         N  0.00052896  0.56297018  0.64193930    -0.35220
C99         C  0.00109450  0.57916435  0.61481178     0.00970
C100        C  0.00024312  0.61117420  0.62164892     0.07000
C101        C  0.99914935  0.61276959  0.65480391    -0.06100
H102        H  0.00194417  0.56800390  0.59169211     0.07670
H103        H  0.99824882  0.63399192  0.66929142     0.08870
Cu104      Cu  0.00094870  0.51483050  0.64525620     0.44170
Cu105      Cu  0.99841969  0.56178431  0.71145839     0.41990
Cu106      Cu  0.00087106  0.46786485  0.71074006     0.43880
N107        N  0.00068494  0.46671790  0.64136066    -0.34750
N108        N  0.00063883  0.44703089  0.66560606    -0.29010
C109        C  0.00034718  0.41689265  0.65411149    -0.05110
C110        C  0.00018498  0.41851874  0.62096856     0.07110
C111        C  0.00040851  0.45054255  0.61417081     0.00900
H112        H  0.00020888  0.39566716  0.66856236     0.08560
H113        H  0.00035579  0.46169601  0.59106051     0.07630
N114        N  0.00090331  0.49877632  0.74992257    -0.36200
N115        N  0.99943658  0.53036245  0.75029378    -0.28380
C116        C  0.99938389  0.54024140  0.78075360    -0.03620
C117        C  0.00142331  0.51402575  0.80031676     0.04990
C118        C  0.00212126  0.48823993  0.78007057     0.03080
H119        H  0.99831025  0.56483989  0.78812731     0.08190
H120        H  0.00290528  0.46345801  0.78672578     0.07020
N121        N  0.99985742  0.68025727  0.43234729    -0.27370
N122        N  0.00114063  0.65600185  0.45199184    -0.35220
C123        C  0.00180663  0.62887735  0.43573416     0.00970
C124        C  0.00091717  0.63568340  0.40370345     0.07000
C125        C  0.99971783  0.66879336  0.40215764    -0.06100
H126        H  0.00272178  0.60577402  0.44685269     0.07670
H127        H  0.99856441  0.68322874  0.38095579     0.08870
Cu128      Cu  0.00134798  0.65951466  0.50020361     0.44170
Cu129      Cu  0.99797271  0.72546639  0.45313167     0.41990
Cu130      Cu  0.99720203  0.72541693  0.54700949     0.43880
N131        N  0.00084972  0.65609577  0.54841335    -0.34750
N132        N  0.99915597  0.68040590  0.56801185    -0.29010
C133        C  0.99881619  0.66906825  0.59822126    -0.05110
C134        C  0.00036447  0.63596644  0.59673635     0.07110
C135        C  0.00163234  0.62904789  0.56471402     0.00900
H136        H  0.99734392  0.68358346  0.61939487     0.08560
H137        H  0.00283148  0.60591859  0.55362070     0.07630
N138        N  0.99560704  0.76443144  0.51592605    -0.36200
N139        N  0.99601385  0.76452719  0.48429591    -0.28380
C140        C  0.99539962  0.79486127  0.47421810    -0.03620
C141        C  0.99412802  0.81476715  0.50035073     0.04990
C142        C  0.99465884  0.79466022  0.52629765     0.03080
H143        H  0.99606284  0.80195316  0.44951930     0.08190
H144        H  0.99560719  0.80138845  0.55106852     0.07020
N145        N  0.00105701  0.58223867  0.33417056    -0.27370
N146        N  0.00073355  0.56258542  0.35845005    -0.35220
C147        C  0.00054979  0.57879871  0.38562243     0.00970
C148        C  0.00076792  0.61081853  0.37880983     0.07000
C149        C  0.00105675  0.61239603  0.34565190    -0.06100
H150        H  0.00028101  0.56766853  0.40874322     0.07670
H151        H  0.00135998  0.63360804  0.33118379     0.08870
Cu152      Cu  0.00064511  0.51444200  0.35475555     0.44170
Cu153      Cu  0.00151162  0.56137053  0.28897232     0.41990
Cu154      Cu  0.99892802  0.46747841  0.28872022     0.43880
N155        N  0.00044142  0.46629089  0.35818172    -0.34750
N156        N  0.99976195  0.44664518  0.33385497    -0.29010
C157        C  0.99971145  0.41648479  0.34525319    -0.05110
C158        C  0.00031640  0.41805868  0.37840478     0.07110
C159        C  0.00079477  0.45007002  0.38529831     0.00900
H160        H  0.99909879  0.39527615  0.33073489     0.08560
H161        H  0.00133661  0.46119769  0.40844145     0.07630
N162        N  0.99955580  0.49866396  0.24976785    -0.36200
N163        N  0.00116708  0.53025300  0.24986444    -0.28380
C164        C  0.00215599  0.54050003  0.21958270    -0.03620
C165        C  0.00093594  0.51451086  0.19965295     0.04990
C166        C  0.99912565  0.48848963  0.21941945     0.03080
H167        H  0.00344126  0.56517540  0.21259043     0.08190
H168        H  0.99799731  0.46383008  0.21227832     0.07020
N169        N  0.00145147  0.34874399  0.43189763    -0.27370
N170        N  0.99974618  0.37303116  0.45152479    -0.35220
C171        C  0.99887630  0.40009939  0.43527309     0.00970
C172        C  0.00009039  0.39322500  0.40325290     0.07000
C173        C  0.00166769  0.36012643  0.40170566    -0.06100
H174        H  0.99761426  0.42321328  0.44639589     0.07670
H175        H  0.00316653  0.34565107  0.38050708     0.08870
Cu176      Cu  0.99931136  0.36963510  0.49969420     0.44170
Cu177      Cu  0.00360017  0.30370258  0.45283756     0.41990
Cu178      Cu  0.00035655  0.30389248  0.54673746     0.43880
N179        N  0.99938512  0.37331560  0.54785340    -0.34750
N180        N  0.99974453  0.34906677  0.56753395    -0.29010
C181        C  0.99999047  0.36054769  0.59770619    -0.05110
C182        C  0.99978731  0.39366827  0.59609879     0.07110
C183        C  0.99940080  0.40046969  0.56406132     0.00900
H184        H  0.00045042  0.34610952  0.61893538     0.08560
H185        H  0.99925618  0.42357318  0.55290854     0.07630
N186        N  0.00255179  0.26482671  0.51568535    -0.36470
N187        N  0.00449256  0.26478491  0.48408923    -0.28380
C188        C  0.00630173  0.23450080  0.47395064    -0.03620
C189        C  0.00537970  0.21467193  0.50002493     0.04990
C190        C  0.00268340  0.23456184  0.52596167     0.03080
H191        H  0.00745566  0.22742394  0.44925159     0.08190
H192        H  0.00103824  0.22754586  0.55063448     0.07020
N193        N  0.43357896  0.01332962  0.66580272    -0.27370
N194        N  0.45287777  0.01422537  0.64117941    -0.35220
C195        C  0.43624813  0.01476905  0.61433989     0.00970
C196        C  0.40435426  0.01415046  0.62173110     0.07000
C197        C  0.40326356  0.01328280  0.65487673    -0.06100
H198        H  0.44703432  0.01554924  0.59103748     0.07670
H199        H  0.38227059  0.01255564  0.66971822     0.08870
Cu200      Cu  0.50112478  0.01461787  0.64349726     0.44170
Cu201      Cu  0.45471641  0.01254170  0.71073039     0.41990
Cu202      Cu  0.54799602  0.02051286  0.70855522     0.43880
N203        N  0.54927547  0.01567757  0.63946563    -0.34750
N204        N  0.56881644  0.01821166  0.66367962    -0.29010
C205        C  0.59899331  0.01859470  0.65237855    -0.05110
C206        C  0.59759366  0.01623396  0.61935351     0.07110
C207        C  0.56564367  0.01440412  0.61240057     0.00900
H208        H  0.62007357  0.02062804  0.66687601     0.08560
H209        H  0.55469771  0.01244657  0.58928219     0.07630
N210        N  0.51786904  0.01834496  0.74802575    -0.36200
N211        N  0.48661823  0.01425456  0.74898149    -0.28380
C212        C  0.47757333  0.01234319  0.77958910    -0.03620
C213        C  0.50403435  0.01546362  0.79896832     0.04990
C214        C  0.52898367  0.01970183  0.77788600     0.03080
H215        H  0.45326443  0.00882850  0.78714514     0.08190
H216        H  0.55350904  0.02424702  0.78323325     0.07020
N217        N  0.66749221  0.01635612  0.56659996    -0.27370
N218        N  0.64342170  0.01574697  0.54675574    -0.35220
C219        C  0.61612214  0.01565520  0.56268643     0.00970
C220        C  0.62264448  0.01624568  0.59474289     0.07000
C221        C  0.65574480  0.01671232  0.59666763    -0.06100
H222        H  0.59313076  0.01527317  0.55133613     0.07670
H223        H  0.66997546  0.01716499  0.61802242     0.08870
Cu224      Cu  0.64766217  0.01525299  0.49881591     0.44170
Cu225      Cu  0.71264155  0.01630430  0.54577489     0.41990
Cu226      Cu  0.71294294  0.01364559  0.45146563     0.43880
N227        N  0.64371670  0.01544433  0.45086701    -0.34750
N228        N  0.66775849  0.01486834  0.43089222    -0.29010
C229        C  0.65595381  0.01520482  0.40087758    -0.05110
C230        C  0.62285515  0.01599340  0.40298270     0.07110
C231        C  0.61641984  0.01613802  0.43508572     0.00900
H232        H  0.67014611  0.01480950  0.37943377     0.08560
H233        H  0.59347145  0.01669289  0.44661050     0.07630
N234        N  0.75170569  0.01331399  0.48285713    -0.36200
N235        N  0.75156836  0.01487418  0.51448644    -0.28380
C236        C  0.78179200  0.01516743  0.52479318    -0.03620
C237        C  0.80173069  0.01353130  0.49882354     0.04990
C238        C  0.78203430  0.01225877  0.47272988     0.03080
H239        H  0.78873768  0.01647954  0.54949720     0.08190
H240        H  0.78921403  0.01125733  0.44804843     0.07020
N241        N  0.43316646  0.01287570  0.33636627    -0.27370
N242        N  0.45264886  0.01543699  0.36063381    -0.35220
C243        C  0.43621325  0.01662212  0.38766919     0.00970
C244        C  0.40428134  0.01472604  0.38065989     0.07000
C245        C  0.40296138  0.01244230  0.34761733    -0.06100
H246        H  0.44709055  0.01858734  0.41082250     0.07670
H247        H  0.38191890  0.01026544  0.33308603     0.08870
Cu248      Cu  0.50083707  0.01654259  0.35680264     0.44170
Cu249      Cu  0.45406050  0.01037085  0.29146475     0.41990
Cu250      Cu  0.54734073  0.01797440  0.28971282     0.43880
N251        N  0.54910479  0.01674044  0.35920447    -0.34750
N252        N  0.56841217  0.01734698  0.33458211    -0.29010
C253        C  0.59872914  0.01712978  0.34546781    -0.05110
C254        C  0.59764760  0.01636994  0.37859991     0.07110
C255        C  0.56574978  0.01612288  0.38603269     0.00900
H256        H  0.61971496  0.01748618  0.33060075     0.08560
H257        H  0.55497566  0.01548486  0.40934383     0.07630
N258        N  0.51569647  0.01615866  0.25136337    -0.36200
N259        N  0.48442493  0.01219373  0.25208001    -0.28380
C260        C  0.47360155  0.01069497  0.22210546    -0.03620
C261        C  0.49880018  0.01469074  0.20124027     0.04990
C262        C  0.52505527  0.01784802  0.22085400     0.03080
H263        H  0.44910530  0.00624134  0.21653137     0.08190
H264        H  0.54944980  0.02124956  0.21353195     0.07020
N265        N  0.33436047  0.01531233  0.56923907    -0.27370
N266        N  0.35842051  0.01400593  0.54931821    -0.35220
C267        C  0.38567844  0.01321866  0.56518030     0.00970
C268        C  0.37918878  0.01405881  0.59727634     0.07000
C269        C  0.34610072  0.01534468  0.59928389    -0.06100
H270        H  0.40864717  0.01224094  0.55372190     0.07670
H271        H  0.33187936  0.01652197  0.62068054     0.08870
Cu272      Cu  0.35447444  0.01390730  0.50131830     0.44170
Cu273      Cu  0.28924834  0.01742443  0.54857272     0.41990
Cu274      Cu  0.28931780  0.01909824  0.45434672     0.43880
N275        N  0.35849578  0.01413761  0.45331219    -0.34750
N276        N  0.33443749  0.01609301  0.43352651    -0.29010
C277        C  0.34614929  0.01617737  0.40343409    -0.05110
C278        C  0.37921126  0.01432569  0.40527278     0.07110
C279        C  0.38574020  0.01302761  0.43730603     0.00900
H280        H  0.33194930  0.01796777  0.38213224     0.08560
H281        H  0.40872911  0.01158831  0.44858310     0.07630
N282        N  0.25042142  0.02104375  0.48573403    -0.36200
N283        N  0.25040899  0.01993669  0.51738005    -0.28380
C284        C  0.22014038  0.02045278  0.52769931    -0.03620
C285        C  0.20034153  0.02232774  0.50173242     0.04990
C286        C  0.22014848  0.02256558  0.47560578     0.03080
H287        H  0.21306272  0.01922017  0.55239543     0.08190
H288        H  0.21305601  0.02302217  0.45091433     0.07020
O289        O  0.00206101  0.96734724  0.47330124    -0.73020
O290        O  0.00140334  0.06279841  0.47378603    -0.74000
O291        O  0.04928939  0.01576075  0.47421081    -0.62620
O292        O  0.95380505  0.01428527  0.47319417    -0.71030
O293        O  0.95306266  0.01483676  0.52600089    -0.70580
O294        O  0.04838869  0.01506369  0.52702156    -0.61840
O295        O  0.00045874  0.06269909  0.52658068    -0.74350
O296        O  0.00067992  0.96710586  0.52602467    -0.73130
Cu297      Cu  0.00163705  0.01505822  0.47177481     1.04560
Cu298      Cu  0.00064085  0.01490900  0.52825483     1.04330
C299        C  0.00152276  0.95215690  0.49955987     0.93180
C300        C  0.00101470  0.07773506  0.50022092     0.92320
C301        C  0.06377524  0.01571851  0.50084708     0.84460
C302        C  0.93848627  0.01421854  0.49944497     0.90730
O303        O  0.47632469  0.96742795  0.00065858    -0.73020
O304        O  0.47633819  0.06259914  0.00047236    -0.74000
O305        O  0.47522788  0.01486684  0.95306649    -0.62620
O306        O  0.47712561  0.01513171  0.04812045    -0.71030
O307        O  0.52962417  0.01507172  0.04735121    -0.70580
O308        O  0.52771845  0.01491928  0.95201204    -0.61840
O309        O  0.52882058  0.06246772  0.99963767    -0.74350
O310        O  0.52883333  0.96748691  0.99968887    -0.73130
Cu311      Cu  0.47443744  0.01500656  0.00063827     1.04560
Cu312      Cu  0.53056651  0.01498325  0.99963755     1.04330
C313        C  0.50263460  0.95229246  0.00002558     0.93180
C314        C  0.50265257  0.07772260  0.99987132     0.92320
C315        C  0.50114993  0.01498471  0.93734136     0.84460
C316        C  0.50358475  0.01504109  0.06293415     0.90730
O317        O  0.00023558  0.48776715  0.04784837    -0.73020
O318        O  0.00155833  0.48749666  0.95238648    -0.74000
O319        O  0.04844720  0.48854467  0.00052227    -0.62620
O320        O  0.95331873  0.48685597  0.99969306    -0.71030
O321        O  0.95256194  0.53939296  0.00083167    -0.70580
O322        O  0.04756861  0.54114908  0.99959580    -0.61840
O323        O  0.99923677  0.54017836  0.95250218    -0.74350
O324        O  0.00074846  0.54052829  0.04785614    -0.73130
Cu325      Cu  0.00094014  0.48581391  0.00012057     1.04560
Cu326      Cu  0.00001181  0.54214188  0.00018301     1.04330
C327        C  0.00040273  0.51417436  0.06280276     0.93180
C328        C  0.00017943  0.51384191  0.93745052     0.92320
C329        C  0.06309413  0.51512071  0.00020997     0.84460
C330        C  0.93778632  0.51289185  0.00017549     0.90730
C331        C  0.11365414  0.04612653  0.49659766    -0.20380
C332        C  0.09866172  0.01677865  0.50138749    -0.06950
C333        C  0.11720860  0.98931033  0.50663660     0.13920
C334        C  0.15041479  0.99188200  0.50672563    -0.20440
C335        C  0.16538855  0.02116650  0.50176687    -0.06950
C336        C  0.14690275  0.04866499  0.49690467     0.13910
C337        C  0.16226335  0.08065917  0.49259451    -0.23780
H338        H  0.09926037  0.06714265  0.49283837     0.15200
H339        H  0.16474998  0.97083275  0.51050918     0.15220
C340        C  0.10284498  0.95696148  0.51184849    -0.23730
H341        H  0.14434273  0.09976629  0.48952361     0.05440
H342        H  0.17774180  0.08032537  0.47122422     0.08660
H343        H  0.17682583  0.08643548  0.51380568     0.08660
H344        H  0.11106693  0.94055898  0.49285556     0.08650
H345        H  0.07654921  0.95722185  0.51165578     0.08650
H346        H  0.11061137  0.94754944  0.53520565     0.05420
C347        C  0.47582082  0.02557870  0.11384741    -0.20380
C348        C  0.50347026  0.01516745  0.09831213    -0.06950
C349        C  0.52946945  0.00472295  0.11689430     0.13920
C350        C  0.52666857  0.00439466  0.15015392    -0.20440
C351        C  0.49890562  0.01461808  0.16575105    -0.06950
C352        C  0.47313864  0.02567379  0.14708493     0.13910
C353        C  0.44290602  0.03856160  0.16133778    -0.23780
H354        H  0.45597345  0.03396272  0.09981339     0.15200
H355        H  0.54645509  0.99577793  0.16407972     0.15220
C356        C  0.56013081  0.99333625  0.10221616    -0.23730
H357        H  0.42791189  0.05049496  0.14323828     0.05440
H358        H  0.44835979  0.05643511  0.17994772     0.08660
H359        H  0.42847125  0.01885793  0.17108183     0.08660
H360        H  0.57169968  0.01305333  0.08908774     0.08650
H361        H  0.55539182  0.97317778  0.08587581     0.08650
H362        H  0.57724943  0.98499947  0.12043919     0.05420
C363        C  0.85333222  0.98633840  0.49085576    -0.20380
C364        C  0.83670640  0.01407316  0.49891452    -0.06950
C365        C  0.85362174  0.04180718  0.50712574     0.13920
C366        C  0.88690658  0.04106050  0.50747421    -0.20440
C367        C  0.90355837  0.01348423  0.49916419    -0.06950
C368        C  0.88669157  0.98568239  0.49108218     0.13910
C369        C  0.90390055  0.95519111  0.48367573    -0.23780
H370        H  0.84015875  0.96507581  0.48479992     0.15200
H371        H  0.89997016  0.06211302  0.51409377     0.15220
C372        C  0.83662013  0.07237788  0.51471665    -0.23730
H373        H  0.88713656  0.93551898  0.47845687     0.05440
H374        H  0.91861572  0.94814142  0.50436855     0.08660
H375        H  0.91949890  0.95849970  0.46265804     0.08660
H376        H  0.82136851  0.06919984  0.53599512     0.08650
H377        H  0.82164410  0.07948186  0.49422027     0.08650
H378        H  0.85352516  0.09200146  0.51968415     0.05420
C379        C  0.47681952  0.02550760  0.85043758    -0.20380
C380        C  0.50439327  0.01541191  0.83445875    -0.06950
C381        C  0.53047972  0.00447128  0.85276985     0.13920
C382        C  0.52831026  0.00462501  0.88605102    -0.20440
C383        C  0.50085395  0.01493140  0.90196256    -0.06950
C384        C  0.47451149  0.02520443  0.88372927     0.13910
C385        C  0.44396514  0.03642570  0.89878954    -0.23780
H386        H  0.45679182  0.03400833  0.83678456     0.15200
H387        H  0.54838651  0.99634284  0.89981768     0.15220
C388        C  0.56052219  0.99161133  0.83809858    -0.23730
H389        H  0.42657152  0.04467383  0.88078666     0.05440
H390        H  0.44879077  0.05661252  0.91506748     0.08660
H391        H  0.43265154  0.01664413  0.91204315     0.08660
H392        H  0.57485060  0.01133206  0.82823562     0.08650
H393        H  0.55482772  0.97378959  0.81951170     0.08650
H394        H  0.57573063  0.97961671  0.85597746     0.05420
C395        C  0.02896065  0.12823003  0.48905940    -0.20380
C396        C  0.00170399  0.11273850  0.50027651    -0.06950
C397        C  0.97572048  0.13082843  0.51133377     0.13920
C398        C  0.97776652  0.16409619  0.51144681    -0.20440
C399        C  0.00493239  0.17962076  0.50008004    -0.06950
C400        C  0.03092463  0.16154141  0.48889904     0.13910
C401        C  0.06105182  0.17729413  0.47777032    -0.23780
H402        H  0.04889216  0.11417268  0.48072882     0.15200
H403        H  0.95779913  0.17811282  0.51975015     0.15220
C404        C  0.94532406  0.11508048  0.52149580    -0.23730
H405        H  0.07940836  0.15959393  0.47095516     0.05440
H406        H  0.07086279  0.19229656  0.49712731     0.08660
H407        H  0.05614303  0.19231833  0.45671700     0.08660
H408        H  0.94977703  0.09891487  0.54180832     0.08650
H409        H  0.93573917  0.10133837  0.50115834     0.08650
H410        H  0.92709227  0.13267792  0.52888463     0.05420
C411        C  0.02804318  0.52209958  0.11396890    -0.20380
C412        C  0.00011302  0.51424580  0.09773033    -0.06950
C413        C  0.97238905  0.50662728  0.11497210     0.13920
C414        C  0.97333297  0.50665387  0.14833514    -0.20440
C415        C  0.00126621  0.51452305  0.16462016    -0.06950
C416        C  0.02897545  0.52221211  0.14732596     0.13910
C417        C  0.05965876  0.52974231  0.16404111    -0.23780
H418        H  0.04923716  0.52783983  0.10047666     0.15200
H419        H  0.95213300  0.50088856  0.16179359     0.15220
C420        C  0.94173028  0.49919591  0.09812443    -0.23730
H421        H  0.07920469  0.53443470  0.14692166     0.05440
H422        H  0.06673192  0.50936504  0.17919165     0.08660
H423        H  0.05664054  0.55115877  0.17912832     0.08660
H424        H  0.94482911  0.47794262  0.08280759     0.08650
H425        H  0.93464329  0.51968393  0.08311592     0.08650
H426        H  0.92216617  0.49432465  0.11516730     0.05420
C427        C  0.01793536  0.86500422  0.48091236    -0.20380
C428        C  0.99538979  0.84997212  0.50033264    -0.06950
C429        C  0.97465222  0.86877468  0.51898260     0.13920
C430        C  0.97784710  0.90197525  0.51856693    -0.20440
C431        C  0.00067736  0.91701475  0.49946763    -0.06950
C432        C  0.02109785  0.89819208  0.48037759     0.13910
C433        C  0.04730520  0.91181483  0.46008560    -0.23780
H434        H  0.03384336  0.85065150  0.46655487     0.15200
H435        H  0.96190351  0.91639881  0.53279532     0.15220
C436        C  0.94803903  0.85424895  0.53804457    -0.23730
H437        H  0.04273346  0.90610831  0.43473769     0.05440
H438        H  0.07029703  0.90101501  0.46711304     0.08660
H439        H  0.04999825  0.93781828  0.46241253     0.08660
H440        H  0.95767699  0.83973757  0.55770609     0.08650
H441        H  0.93306779  0.83920819  0.52239234     0.08650
H442        H  0.93252194  0.87268908  0.54883455     0.05420
C443        C  0.97600138  0.52752815  0.85172901    -0.20380
C444        C  0.00157153  0.51365282  0.83542927    -0.06950
C445        C  0.02673482  0.49989009  0.85283275     0.13920
C446        C  0.02546872  0.49996051  0.88618699    -0.20440
C447        C  0.99992394  0.51386208  0.90243743    -0.06950
C448        C  0.97476294  0.52760362  0.88508927     0.13910
C449        C  0.94613606  0.54133217  0.90169996    -0.23780
H450        H  0.95671238  0.53791781  0.83826041     0.15200
H451        H  0.04476994  0.48963487  0.89969979     0.15220
C452        C  0.05551476  0.48629119  0.83640705    -0.23730
H453        H  0.92811147  0.54992927  0.88450478     0.05440
H454        H  0.95330930  0.56171774  0.91678118     0.08660
H455        H  0.93487178  0.52287179  0.91682316     0.08660
H456        H  0.06660117  0.50470438  0.82111643     0.08650
H457        H  0.04864952  0.46561731  0.82161846     0.08650
H458        H  0.07362255  0.47809099  0.85371246     0.05420
C459        C  0.11409473  0.49037389  0.98472240    -0.20380
C460        C  0.09826569  0.51536916  0.00011008    -0.06950
C461        C  0.11629923  0.53932939  0.01530012     0.13920
C462        C  0.14955194  0.53734744  0.01490334    -0.20440
C463        C  0.16542473  0.51223284  0.99966801    -0.06950
C464        C  0.14733805  0.48854443  0.98402094     0.13910
C465        C  0.16245061  0.46195342  0.96533106    -0.23780
H466        H  0.10028581  0.47223033  0.97276548     0.15200
H467        H  0.16329989  0.55551328  0.02687249     0.15220
C468        C  0.10088698  0.56658979  0.03275431    -0.23730
H469        H  0.14463938  0.44858775  0.95120657     0.05440
H470        H  0.17362333  0.44464607  0.98162226     0.08660
H471        H  0.18027904  0.47162257  0.94846168     0.08660
H472        H  0.08450708  0.55734110  0.05126285     0.08650
H473        H  0.08760830  0.58175479  0.01581320     0.08650
H474        H  0.11868874  0.58193542  0.04471053     0.05420
C475        C  0.52597769  0.16484970  0.98943520    -0.20380
C476        C  0.49816774  0.18046368  0.99937508    -0.06950
C477        C  0.47204036  0.16182699  0.00976755     0.13920
C478        C  0.47457999  0.12860254  0.00958041    -0.20440
C479        C  0.50240233  0.11306984  0.99970091    -0.06950
C480        C  0.52863761  0.13163977  0.98966439     0.13910
C481        C  0.55949129  0.11705311  0.97867866    -0.23780
H482        H  0.54597633  0.17873907  0.98117621     0.15200
H483        H  0.45450773  0.11458426  0.01753060     0.15220
C484        C  0.44154179  0.17606426  0.02201415    -0.23730
H485        H  0.57673988  0.13529557  0.97059058     0.05440
H486        H  0.55508532  0.10076140  0.95840140     0.08660
H487        H  0.57078489  0.10396277  0.99855756     0.08660
H488        H  0.42769197  0.18599406  0.00200157     0.08650
H489        H  0.44659723  0.19448689  0.04019385     0.08650
H490        H  0.42613558  0.15793914  0.03342221     0.05420
C491        C  0.85080710  0.49018988  0.98790494    -0.20380
C492        C  0.83518329  0.51718304  0.99990676    -0.06950
C493        C  0.85369320  0.54224918  0.01271302     0.13920
C494        C  0.88690162  0.53972987  0.01252872    -0.20440
C495        C  0.90248738  0.51289072  0.00028197    -0.06950
C496        C  0.88404018  0.48755828  0.98804010     0.13910
C497        C  0.89886971  0.45788726  0.97445436    -0.23780
H498        H  0.83689739  0.47094128  0.97803929     0.15200
H499        H  0.90086957  0.55900448  0.02230873     0.15220
C500        C  0.83920941  0.57140490  0.02766875    -0.23730
H501        H  0.88076093  0.44135396  0.96475900     0.05440
H502        H  0.91192344  0.44494935  0.99332467     0.08660
H503        H  0.91529053  0.46419377  0.95477939     0.08660
H504        H  0.82067627  0.56454400  0.04514276     0.08650
H505        H  0.82924160  0.58702076  0.00903354     0.08650
H506        H  0.85718751  0.58574585  0.04057306     0.05420
C507        C  0.52506188  0.86518625  0.98796086    -0.20380
C508        C  0.49788008  0.84970741  0.99961268    -0.06950
C509        C  0.47264369  0.86834968  0.01198991     0.13920
C510        C  0.47524120  0.90155959  0.01176658    -0.20440
C511        C  0.50234158  0.91699173  0.99996824    -0.06950
C512        C  0.52780252  0.89839004  0.98811316     0.13910
C513        C  0.55777101  0.91299369  0.97496875    -0.23780
H514        H  0.54441058  0.85117595  0.97835557     0.15200
H515        H  0.45583943  0.91564981  0.02120368     0.15220
C516        C  0.44322387  0.85402415  0.02653117    -0.23730
H517        H  0.57433919  0.89475359  0.96549303     0.05440
H518        H  0.57052115  0.92598538  0.99403532     0.08660
H519        H  0.55188294  0.92940890  0.95521174     0.08660
H520        H  0.44975265  0.83550312  0.04408901     0.08650
H521        H  0.42783545  0.84408986  0.00767545     0.08650
H522        H  0.42877314  0.87210512  0.03924964     0.05420
loop_ 
_geom_bond_atom_site_label_1 
_geom_bond_atom_site_label_2 
_geom_bond_distance 
_geom_bond_site_symmetry_2 
_ccdc_geom_bond_type 
N1            N2   1.315   1_556  A
N1            C5   1.356       .  A
N1           Cu9   2.080       .  S
N2            C3   1.330       .  A
N2           Cu8   2.031       .  S
C3            C4   1.379   1_554  A
C3            H6   1.081       .  S
C4            C5   1.394       .  A
C4           C76   1.475       .  S
C5            H7   1.082       .  S
Cu8          N11   2.031       .  S
Cu9          N19   2.089       .  S
Cu10         N12   2.091       .  S
Cu10         N18   2.100       .  S
N11          N12   1.316       .  A
N11          C15   1.330       .  A
N12          C13   1.358       .  A
C13          C14   1.396       .  A
C13          H16   1.082       .  S
C14          C15   1.378       .  A
C14          C28   1.478   1_554  S
C15          H17   1.080       .  S
N18          N19   1.329   1_554  A
N18          C22   1.345       .  A
N19          C20   1.343       .  A
C20          C21   1.384       .  A
C20          H23   1.076       .  S
C21          C22   1.387   1_556  A
C21         C508   1.490       .  S
C22          H24   1.082       .  S
N25          N26   1.315       .  A
N25          C29   1.357       .  A
N25         Cu33   2.086       .  S
N26          C27   1.331   1_556  A
N26         Cu32   2.032       .  S
C27          C28   1.379   1_554  A
C27          H30   1.081       .  S
C28          C29   1.395       .  A
C29          H31   1.081       .  S
Cu32         N35   2.032   1_556  S
Cu33         N43   2.095       .  S
Cu34         N36   2.090       .  S
Cu34         N42   2.099       .  S
N35          N36   1.316       .  A
N35          C39   1.330       .  A
N36          C37   1.358       .  A
C37          C38   1.396       .  A
C37          H40   1.082       .  S
C38          C39   1.379       .  A
C38          C52   1.479       .  S
C39          H41   1.080   1_554  S
N42          N43   1.329   1_554  A
N42          C46   1.345       .  A
N43          C44   1.344       .  A
C44          C45   1.385       .  A
C44          H47   1.077       .  S
C45          C46   1.386   1_556  A
C45         C492   1.491       .  S
C46          H48   1.082       .  S
N49          N50   1.316       .  A
N49          C53   1.359       .  A
N49         Cu57   2.094       .  S
N50          C51   1.329   1_554  A
N50         Cu56   2.028   1_554  S
C51          C52   1.378   1_556  A
C51          H54   1.080       .  S
C52          C53   1.397       .  A
C53          H55   1.082       .  S
Cu56         N59   2.029       .  S
Cu57         N67   2.103       .  S
Cu58         N60   2.078       .  S
Cu58         N66   2.086       .  S
N59          N60   1.315       .  A
N59          C63   1.330   1_556  A
N60          C61   1.355       .  A
C61          C62   1.393       .  A
C61          H64   1.082       .  S
C62          C63   1.378   1_556  A
C62          C86   1.473   1_556  S
C63          H65   1.081       .  S
N66          N67   1.328   1_556  A
N66          C70   1.342       .  A
N67          C68   1.345       .  A
C68          C69   1.389   1_554  A
C68          H71   1.082       .  S
C69          C70   1.385       .  A
C69         C476   1.493       .  S
C70          H72   1.075       .  S
N73          N74   1.315       .  A
N73          C77   1.357       .  A
N73         Cu81   2.090       .  S
N74          C75   1.329       .  A
N74         Cu80   2.023       .  S
C75          C76   1.376       .  A
C75          H78   1.081   1_556  S
C76          C77   1.396       .  A
C77          H79   1.082       .  S
Cu80         N83   2.024   1_556  S
Cu81         N91   2.099       .  S
Cu82         N84   2.082       .  S
Cu82         N90   2.091       .  S
N83          N84   1.314       .  A
N83          C87   1.330   1_554  A
N84          C85   1.356       .  A
C85          C86   1.395       .  A
C85          H88   1.081       .  S
C86          C87   1.377   1_554  A
C87          H89   1.081       .  S
N90          N91   1.330   1_554  A
N90          C94   1.343       .  A
N91          C92   1.345       .  A
C92          C93   1.384       .  A
C92          H95   1.082       .  S
C93          C94   1.382   1_556  A
C93         C463   1.485       .  S
C94          H96   1.078       .  S
N97          N98   1.316   1_655  A
N97         C101   1.359       .  A
N97        Cu105   2.096       .  S
N98          C99   1.331       .  A
N98        Cu104   2.032       .  S
C99         C100   1.379       .  A
C99         H102   1.080       .  S
C100        C101   1.397   1_455  A
C100        C134   1.480       .  S
C101        H103   1.082       .  S
Cu104       N107   2.033       .  S
Cu105       N115   2.104       .  S
Cu106       N108   2.091       .  S
Cu106       N114   2.099       .  S
N107        N108   1.315       .  A
N107        C111   1.331       .  A
N108        C109   1.358       .  A
C109        C110   1.396       .  A
C109        H112   1.082       .  S
C110        C111   1.379       .  A
C110        C182   1.479   1_455  S
C111        H113   1.080       .  S
N114        N115   1.332   1_455  A
N114        C118   1.345       .  A
N115        C116   1.347       .  A
C116        C117   1.381   1_655  A
C116        H119   1.082       .  S
C117        C118   1.380       .  A
C117        C444   1.478       .  S
C118        H120   1.081       .  S
N121        N122   1.316   1_655  A
N121        C125   1.358       .  A
N121       Cu129   2.096       .  S
N122        C123   1.331       .  A
N122       Cu128   2.034       .  S
C123        C124   1.379       .  A
C123        H126   1.081       .  S
C124        C125   1.397   1_455  A
C124        C148   1.480       .  S
C125        H127   1.081       .  S
Cu128       N131   2.034       .  S
Cu129       N139   2.104       .  S
Cu130       N132   2.094       .  S
Cu130       N138   2.102       .  S
N131        N132   1.316   1_455  A
N131        C135   1.331       .  A
N132        C133   1.358       .  A
C133        C134   1.397   1_655  A
C133        H136   1.082       .  S
C134        C135   1.379       .  A
C135        H137   1.081       .  S
N138        N139   1.331       .  A
N138        C142   1.346       .  A
N139        C140   1.347       .  A
C140        C141   1.383       .  A
C140        H143   1.082       .  S
C141        C142   1.383       .  A
C141        C428   1.484       .  S
C142        H144   1.081       .  S
N145        N146   1.316       .  A
N145        C149   1.358       .  A
N145       Cu153   2.094       .  S
N146        C147   1.331       .  A
N146       Cu152   2.033       .  S
C147        C148   1.379       .  A
C147        H150   1.080       .  S
C148        C149   1.397       .  A
C149        H151   1.082       .  S
Cu152       N155   2.033       .  S
Cu153       N163   2.102       .  S
Cu154       N156   2.093       .  S
Cu154       N162   2.102       .  S
N155        N156   1.316   1_455  A
N155        C159   1.331       .  A
N156        C157   1.358       .  A
C157        C158   1.397   1_655  A
C157        H160   1.082       .  S
C158        C159   1.379       .  A
C158        C172   1.480       .  S
C159        H161   1.080       .  S
N162        N163   1.332   1_655  A
N162        C166   1.347       .  A
N163        C164   1.346       .  A
C164        C165   1.379       .  A
C164        H167   1.082       .  S
C165        C166   1.379   1_455  A
C165        C415   1.474       .  S
C166        H168   1.082       .  S
N169        N170   1.316   1_455  A
N169        C173   1.358       .  A
N169       Cu177   2.095       .  S
N170        C171   1.331       .  A
N170       Cu176   2.032       .  S
C171        C172   1.379   1_655  A
C171        H174   1.081       .  S
C172        C173   1.397       .  A
C173        H175   1.082       .  S
Cu176       N179   2.032       .  S
Cu177       N187   2.103       .  S
Cu178       N180   2.093   1_455  S
Cu178       N186   2.102       .  S
N179        N180   1.316       .  A
N179        C183   1.331       .  A
N180        C181   1.358       .  A
C181        C182   1.397       .  A
C181        H184   1.081   1_655  S
C182        C183   1.379       .  A
C183        H185   1.081       .  S
N186        N187   1.332       .  A
N186        C190   1.346       .  A
N187        C188   1.346       .  A
C188        C189   1.380       .  A
C188        H191   1.082       .  S
C189        C190   1.379       .  A
C189        C399   1.476       .  S
C190        H192   1.082       .  S
N193        N194   1.316       .  A
N193        C197   1.358       .  A
N193       Cu201   2.091       .  S
N194        C195   1.330       .  A
N194       Cu200   2.035       .  S
C195        C196   1.379       .  A
C195        H198   1.080       .  S
C196        C197   1.396       .  A
C196        C268   1.479       .  S
C197        H199   1.082       .  S
Cu200       N203   2.036       .  S
Cu201       N211   2.100       .  S
Cu202       N204   2.083       .  S
Cu202       N210   2.090       .  S
N203        N204   1.315       .  A
N203        C207   1.331       .  A
N204        C205   1.356       .  A
C205        C206   1.394       .  A
C205        H208   1.082       .  S
C206        C207   1.380       .  A
C206        C220   1.477       .  S
C207        H209   1.080       .  S
N210        N211   1.328       .  A
N210        C214   1.343       .  A
N211        C212   1.345       .  A
C212        C213   1.388       .  A
C212        H215   1.082       .  S
C213        C214   1.386       .  A
C213        C380   1.493       .  S
C214        H216   1.075       .  S
N217        N218   1.315       .  A
N217        C221   1.358       .  A
N217       Cu225   2.093       .  S
N218        C219   1.330       .  A
N218       Cu224   2.025       .  S
C219        C220   1.377       .  A
C219        H222   1.081       .  S
C220        C221   1.397       .  A
C221        H223   1.081       .  S
Cu224       N227   2.025       .  S
Cu225       N235   2.102       .  S
Cu226       N228   2.093       .  S
Cu226       N234   2.102       .  S
N227        N228   1.315       .  A
N227        C231   1.329       .  A
N228        C229   1.358       .  A
C229        C230   1.397       .  A
C229        H232   1.082       .  S
C230        C231   1.377       .  A
C230        C254   1.478       .  S
C231        H233   1.081       .  S
N234        N235   1.332       .  A
N234        C238   1.347       .  A
N235        C236   1.346       .  A
C236        C237   1.379       .  A
C236        H239   1.082       .  S
C237        C238   1.378       .  A
C237        C364   1.473       .  S
C238        H240   1.082       .  S
N241        N242   1.316       .  A
N241        C245   1.357       .  A
N241       Cu249   2.085       .  S
N242        C243   1.331       .  A
N242       Cu248   2.036       .  S
C243        C244   1.380       .  A
C243        H246   1.080       .  S
C244        C245   1.395       .  A
C244        C278   1.478       .  S
C245        H247   1.082       .  S
Cu248       N251   2.036       .  S
Cu249       N259   2.093       .  S
Cu250       N252   2.088       .  S
Cu250       N258   2.096       .  S
N251        N252   1.316       .  A
N251        C255   1.330       .  A
N252        C253   1.357       .  A
C253        C254   1.395       .  A
C253        H256   1.082       .  S
C254        C255   1.379       .  A
C255        H257   1.080       .  S
N258        N259   1.328       .  A
N258        C262   1.344       .  A
N259        C260   1.343       .  A
C260        C261   1.387       .  A
C260        H263   1.075       .  S
C261        C262   1.387       .  A
C261        C351   1.493       .  S
C262        H264   1.082       .  S
N265        N266   1.315       .  A
N265        C269   1.358       .  A
N265       Cu273   2.093       .  S
N266        C267   1.330       .  A
N266       Cu272   2.027       .  S
C267        C268   1.378       .  A
C267        H270   1.081       .  S
C268        C269   1.397       .  A
C269        H271   1.082       .  S
Cu272       N275   2.027       .  S
Cu273       N283   2.102       .  S
Cu274       N276   2.095       .  S
Cu274       N282   2.104       .  S
N275        N276   1.315       .  A
N275        C279   1.330       .  A
N276        C277   1.358       .  A
C277        C278   1.397       .  A
C277        H280   1.081       .  S
C278        C279   1.377       .  A
C279        H281   1.081       .  S
N282        N283   1.332       .  A
N282        C286   1.347       .  A
N283        C284   1.346       .  A
C284        C285   1.378       .  A
C284        H287   1.082       .  S
C285        C286   1.379       .  A
C285        C335   1.473       .  S
C286        H288   1.082       .  S
O289       Cu297   2.011   1_565  S
O289        C299   1.278       .  A
O290       Cu297   2.012       .  S
O290        C300   1.277       .  A
O291       Cu297   2.010       .  S
O291        C301   1.277       .  A
O292       Cu297   2.016   1_655  S
O292        C302   1.278       .  A
O293       Cu298   2.007   1_655  S
O293        C302   1.276       .  A
O294       Cu298   2.012       .  S
O294        C301   1.277       .  A
O295       Cu298   2.014       .  S
O295        C300   1.278       .  A
O296       Cu298   2.015   1_565  S
O296        C299   1.279       .  A
Cu297      Cu298   2.377       .  S
C299        C431   1.480       .  S
C300        C396   1.474       .  S
C301        C332   1.470       .  S
C302        C367   1.472       .  S
O303       Cu311   2.005   1_565  S
O303        C313   1.279       .  A
O304       Cu311   2.006       .  S
O304        C314   1.279   1_554  A
O305       Cu311   2.002   1_556  S
O305        C315   1.276       .  A
O306       Cu311   2.001       .  S
O306        C316   1.278       .  A
O307       Cu312   2.008   1_554  S
O307        C316   1.277       .  A
O308       Cu312   2.008       .  S
O308        C315   1.279       .  A
O309       Cu312   2.001       .  S
O309        C314   1.276       .  A
O310       Cu312   2.002   1_565  S
O310        C313   1.276   1_556  A
Cu311      Cu312   2.365   1_554  S
C313        C511   1.487   1_554  S
C314        C479   1.489       .  S
C315        C383   1.489       .  S
C316        C348   1.489       .  S
O317       Cu325   2.010       .  S
O317        C327   1.277       .  A
O318       Cu325   2.010   1_556  S
O318        C328   1.277       .  A
O319       Cu325   2.005       .  S
O319        C329   1.278       .  A
O320       Cu325   2.007   1_656  S
O320        C330   1.277   1_556  A
O321       Cu326   2.002   1_655  S
O321        C330   1.278       .  A
O322       Cu326   2.004   1_556  S
O322        C329   1.277   1_556  A
O323       Cu326   2.008   1_656  S
O323        C328   1.277   1_655  A
O324       Cu326   2.007       .  S
O324        C327   1.276       .  A
Cu325      Cu326   2.373       .  S
C327        C412   1.470       .  S
C328        C447   1.473   1_455  S
C329        C460   1.482       .  S
C330        C495   1.487       .  S
C331        C332   1.403       .  A
C331        C336   1.405       .  A
C331        H338   1.085       .  S
C332        C333   1.414   1_545  A
C333        C334   1.403       .  A
C333        C340   1.507       .  S
C334        C335   1.401   1_565  A
C334        H339   1.085       .  S
C335        C336   1.411       .  A
C336        C337   1.506       .  S
C337        H341   1.111       .  S
C337        H342   1.110       .  S
C337        H343   1.111       .  S
C340        H344   1.111       .  S
C340        H345   1.108       .  S
C340        H346   1.110       .  S
C347        C348   1.404       .  A
C347        C352   1.403       .  A
C347        H354   1.084       .  S
C348        C349   1.417       .  A
C349        C350   1.404       .  A
C349        C356   1.509   1_545  S
C350        C351   1.407       .  A
C350        H355   1.083   1_545  S
C351        C352   1.420       .  A
C352        C353   1.507       .  S
C353        H357   1.111       .  S
C353        H358   1.110       .  S
C353        H359   1.107       .  S
C356        H360   1.110   1_565  S
C356        H361   1.110       .  S
C356        H362   1.111       .  S
C363        C364   1.403   1_565  A
C363        C368   1.405       .  A
C363        H370   1.084       .  S
C364        C365   1.411       .  A
C365        C366   1.402       .  A
C365        C372   1.507       .  S
C366        C367   1.400       .  A
C366        H371   1.080       .  S
C367        C368   1.411   1_545  A
C368        C369   1.506       .  S
C369        H373   1.111       .  S
C369        H374   1.110       .  S
C369        H375   1.110       .  S
C372        H376   1.109       .  S
C372        H377   1.111       .  S
C372        H378   1.111       .  S
C379        C380   1.406       .  A
C379        C384   1.404       .  A
C379        H386   1.083       .  S
C380        C381   1.420       .  A
C381        C382   1.403       .  A
C381        C388   1.507   1_545  S
C382        C383   1.404       .  A
C382        H387   1.084   1_545  S
C383        C384   1.418       .  A
C384        C385   1.509       .  S
C385        H389   1.111       .  S
C385        H390   1.110       .  S
C385        H391   1.110       .  S
C388        H392   1.107   1_565  S
C388        H393   1.110       .  S
C388        H394   1.111       .  S
C395        C396   1.402       .  A
C395        C400   1.405       .  A
C395        H402   1.085       .  S
C396        C397   1.411   1_455  A
C397        C398   1.404       .  A
C397        C404   1.504       .  S
C398        C399   1.402   1_655  A
C398        H403   1.085       .  S
C399        C400   1.413       .  A
C400        C401   1.506       .  S
C401        H405   1.111       .  S
C401        H406   1.111       .  S
C401        H407   1.109       .  S
C404        H408   1.110       .  S
C404        H409   1.109       .  S
C404        H410   1.111       .  S
C411        C412   1.401       .  A
C411        C416   1.404       .  A
C411        H418   1.085       .  S
C412        C413   1.411   1_455  A
C413        C414   1.404       .  A
C413        C420   1.507       .  S
C414        C415   1.402   1_655  A
C414        H419   1.084       .  S
C415        C416   1.412       .  A
C416        C417   1.506       .  S
C417        H421   1.111       .  S
C417        H422   1.111       .  S
C417        H423   1.109       .  S
C420        H424   1.110       .  S
C420        H425   1.111       .  S
C420        H426   1.111       .  S
C427        C428   1.403   1_455  A
C427        C432   1.404       .  A
C427        H434   1.085       .  S
C428        C429   1.415       .  A
C429        C430   1.405       .  A
C429        C436   1.507       .  S
C430        C431   1.404   1_655  A
C430        H435   1.084       .  S
C431        C432   1.417       .  A
C432        C433   1.508       .  S
C433        H437   1.110       .  S
C433        H438   1.111       .  S
C433        H439   1.105       .  S
C436        H440   1.107       .  S
C436        H441   1.111       .  S
C436        H442   1.111       .  S
C443        C444   1.403   1_655  A
C443        C448   1.405       .  A
C443        H450   1.084       .  S
C444        C445   1.414       .  A
C445        C446   1.404       .  A
C445        C452   1.507       .  S
C446        C447   1.401   1_455  A
C446        H451   1.084       .  S
C447        C448   1.412       .  A
C448        C449   1.507       .  S
C449        H453   1.111       .  S
C449        H454   1.109       .  S
C449        H455   1.111       .  S
C452        H456   1.111       .  S
C452        H457   1.108       .  S
C452        H458   1.111       .  S
C459        C460   1.403   1_556  A
C459        C464   1.403       .  A
C459        H466   1.084       .  S
C460        C461   1.416       .  A
C461        C462   1.403       .  A
C461        C468   1.508       .  S
C462        C463   1.405   1_554  A
C462        H467   1.084       .  S
C463        C464   1.418       .  A
C464        C465   1.508       .  S
C465        H469   1.111       .  S
C465        H470   1.107       .  S
C465        H471   1.110       .  S
C468        H472   1.110       .  S
C468        H473   1.110       .  S
C468        H474   1.111       .  S
C475        C476   1.406       .  A
C475        C480   1.403       .  A
C475        H482   1.083       .  S
C476        C477   1.421   1_556  A
C477        C478   1.403       .  A
C477        C484   1.507       .  S
C478        C479   1.404   1_554  A
C478        H483   1.084       .  S
C479        C480   1.418       .  A
C480        C481   1.509       .  S
C481        H485   1.111       .  S
C481        H486   1.110       .  S
C481        H487   1.110       .  S
C484        H488   1.108       .  S
C484        H489   1.110       .  S
C484        H490   1.111       .  S
C491        C492   1.406       .  A
C491        C496   1.404       .  A
C491        H498   1.083       .  S
C492        C493   1.419   1_556  A
C493        C494   1.403       .  A
C493        C500   1.507       .  S
C494        C495   1.404       .  A
C494        H499   1.084       .  S
C495        C496   1.417   1_554  A
C496        C497   1.508       .  S
C497        H501   1.111       .  S
C497        H502   1.110       .  S
C497        H503   1.110       .  S
C500        H504   1.110       .  S
C500        H505   1.107       .  S
C500        H506   1.111       .  S
C507        C508   1.405       .  A
C507        C512   1.403       .  A
C507        H514   1.083       .  S
C508        C509   1.419   1_556  A
C509        C510   1.403       .  A
C509        C516   1.507       .  S
C510        C511   1.404   1_554  A
C510        H515   1.084       .  S
C511        C512   1.418       .  A
C512        C513   1.509       .  S
C513        H517   1.111       .  S
C513        H518   1.110       .  S
C513        H519   1.110       .  S
C516        H520   1.110       .  S
C516        H521   1.107       .  S
C516        H522   1.111       .  S
