geometry optimzed in LAMMPS
_audit_creation_date              2020-11-30 
_audit_creation_method            'lammps2cif' 
_symmetry_space_group_name_H-M    'P1' 
_symmetry_Int_Tables_number       1 
_symmetry_cell_setting            triclinic 
loop_ 
_symmetry_equiv_pos_as_xyz 
  x,y,z 
_cell_length_a                    57.19336828 
_cell_length_b                    68.95188169767634 
_cell_length_c                    80.51141161787667 
_cell_angle_alpha                 90.02447020855033 
_cell_angle_beta                  98.10500066733395 
_cell_angle_gamma                 89.9193981713288 
loop_ 
_atom_site_label 
_atom_site_type_symbol 
_atom_site_fract_x 
_atom_site_fract_y 
_atom_site_fract_z 
_atom_site_charge 
N1          N  0.55403933  0.65510905  0.51054285    -0.26800
N2          N  0.54888484  0.66906340  0.49935860    -0.34600
C3          C  0.56453397  0.68354791  0.50262895     0.01600
C4          C  0.58032585  0.67846544  0.51653510     0.07600
C5          C  0.57319269  0.66037653  0.52125941    -0.05500
H6          H  0.56414253  0.69688736  0.49554088     0.08300
H7          H  0.58122067  0.65173591  0.53175629     0.09500
Cu8        Cu  0.52014617  0.66866589  0.48070970     0.44200
Cu9        Cu  0.53464287  0.62967489  0.51069116     0.42000
Cu10       Cu  0.47942357  0.62943140  0.48201183     0.43900
N11         N  0.48773336  0.66755382  0.46577304    -0.34100
N12         N  0.47199888  0.65380074  0.46700797    -0.28400
C13         C  0.45197004  0.65816519  0.45678817    -0.04500
C14         C  0.45555710  0.67527979  0.44857184     0.07700
C15         C  0.47841038  0.68080387  0.45450208     0.01500
H16         H  0.43615412  0.64938086  0.45525207     0.09200
H17         H  0.48735265  0.69379383  0.45127467     0.08200
N18         N  0.49281144  0.60554421  0.49599806    -0.35600
N19         N  0.51280248  0.60559450  0.50650768    -0.27800
C20         C  0.51724243  0.58749104  0.51240733    -0.03000
C21         C  0.49925593  0.57547922  0.50516264     0.05600
C22         C  0.48409423  0.58741377  0.49487853     0.03700
H23         H  0.53300879  0.58324464  0.52065205     0.08800
H24         H  0.46842559  0.58307594  0.48658306     0.07600
N25         N  0.46633671  0.35990842  0.46522084    -0.26800
N26         N  0.47307172  0.34294689  0.47194808    -0.34600
C27         C  0.46073238  0.32878982  0.46320019     0.01600
C28         C  0.44580806  0.33718675  0.45019329     0.07600
C29         C  0.44984518  0.35693640  0.45177889    -0.05500
H30         H  0.46287290  0.31347013  0.46588693     0.08300
H31         H  0.44117832  0.36831539  0.44394246     0.09500
Cu32       Cu  0.49991481  0.33953986  0.49196210     0.44200
Cu33       Cu  0.47896488  0.38627885  0.47534346     0.42000
Cu34       Cu  0.52450499  0.38366891  0.51152200     0.43900
N35         N  0.52928037  0.34005954  0.51035031    -0.34100
N36         N  0.53806247  0.35617903  0.51762812    -0.28400
C37         C  0.55737549  0.35176000  0.52853679    -0.04500
C38         C  0.56104125  0.33193576  0.52799026     0.07700
C39         C  0.54292560  0.32497721  0.51631900     0.01500
H40         H  0.56831027  0.36229746  0.53593462     0.09200
H41         H  0.54005328  0.31010222  0.51228369     0.08200
N42         N  0.50872882  0.40945445  0.50238638    -0.35600
N43         N  0.49211874  0.41035181  0.48919361    -0.27800
C44         C  0.48535016  0.42893344  0.48664337    -0.03000
C45         C  0.49838740  0.44029966  0.49875744     0.05600
C46         C  0.51307124  0.42748329  0.50849951     0.03700
H47         H  0.47195985  0.43377501  0.47666101     0.08800
H48         H  0.52588816  0.43097849  0.51928596     0.07600
N49         N  0.71360796  0.23787908  0.59258440    -0.26800
N50         N  0.71625332  0.25178965  0.60402398    -0.34600
C51         C  0.69979081  0.26554122  0.59975904     0.01600
C52         C  0.68607819  0.26000331  0.58500168     0.07600
C53         C  0.69528104  0.24237900  0.58081051    -0.05500
H54         H  0.69806529  0.27868534  0.60682311     0.08300
H55         H  0.68952312  0.23369811  0.56980061     0.09500
Cu56       Cu  0.74242495  0.25198930  0.62475161     0.44200
Cu57       Cu  0.73625407  0.21426800  0.59252147     0.42000
Cu58       Cu  0.78792347  0.21609799  0.62377320     0.43900
N59         N  0.77051950  0.24848746  0.64390288    -0.34100
N60         N  0.78718626  0.23530352  0.64334163    -0.28400
C61         C  0.80243158  0.23600293  0.65762153    -0.04500
C62         C  0.79506719  0.25031479  0.66768842     0.07700
C63         C  0.77477777  0.25800539  0.65863109     0.01500
H64         H  0.81752441  0.22651325  0.66057565     0.09200
H65         H  0.76369081  0.26936437  0.66254622     0.08200
N66         N  0.78387670  0.19652428  0.60420302    -0.35600
N67         N  0.76448526  0.19513384  0.59319709    -0.27800
C68         C  0.76731497  0.18075375  0.58235419    -0.03000
C69         C  0.78965654  0.17299632  0.58665287     0.05600
C70         C  0.79968536  0.18331467  0.60054887     0.03700
H71         H  0.75438743  0.17669422  0.57179975     0.08800
H72         H  0.81713397  0.18138324  0.60752079     0.07600
N73         N  0.95277498  0.28645685  0.84981157    -0.26800
N74         N  0.94936573  0.27385029  0.83731897    -0.34600
C75         C  0.96674503  0.26059949  0.83926600     0.01600
C76         C  0.98191183  0.26508519  0.85360351     0.07600
C77         C  0.97262097  0.28157399  0.86001996    -0.05500
H78         H  0.96811196  0.24850402  0.83089628     0.08300
H79         H  0.97940477  0.28917651  0.87143844     0.09500
Cu80       Cu  0.92137235  0.27455172  0.81814362     0.44200
Cu81       Cu  0.92946933  0.30894735  0.85284316     0.42000
Cu82       Cu  0.87618100  0.30920429  0.82200739     0.43900
N83         N  0.89247145  0.27829310  0.79999829    -0.34100
N84         N  0.87571368  0.29115640  0.80135270    -0.28400
C85         C  0.86003254  0.29085162  0.78723522    -0.04500
C86         C  0.86732375  0.27710351  0.77654743     0.07700
C87         C  0.88793056  0.26937846  0.78504537     0.01500
H88         H  0.84474499  0.30021711  0.78480162     0.09200
H89         H  0.89914183  0.25847574  0.78057314     0.08200
N90         N  0.88182613  0.32757579  0.84259006    -0.35600
N91         N  0.90153899  0.32819257  0.85337830    -0.27800
C92         C  0.89979441  0.34257269  0.86447549    -0.03000
C93         C  0.87783533  0.35118046  0.86055016     0.05600
C94         C  0.86691112  0.34127347  0.84669622     0.03700
H95         H  0.91336033  0.34629270  0.87474041     0.08800
H96         H  0.84957571  0.34409971  0.83984534     0.07600
N97         N  0.88134472  0.97427157  0.51868137    -0.26800
N98         N  0.86154270  0.98305324  0.52107915    -0.34600
C99         C  0.84686139  0.96993979  0.52638530     0.01600
C100        C  0.85822719  0.95220224  0.52758767     0.07600
C101        C  0.88002879  0.95543427  0.52265089    -0.05500
H102        H  0.82973422  0.97326628  0.52990947     0.08300
H103        H  0.89399379  0.94494923  0.52212125     0.09500
Cu104      Cu  0.85717809  0.01281127  0.51940694     0.44200
Cu105      Cu  0.90943991  0.98829642  0.51055618     0.42000
Cu106      Cu  0.90913736  0.04050210  0.51224482     0.43900
N107        N  0.86045988  0.04252530  0.52246782    -0.35700
N108        N  0.87979315  0.05247627  0.52090920    -0.28400
C109        C  0.87702818  0.07083995  0.52600212    -0.04500
C110        C  0.85478921  0.07248383  0.53071215     0.07700
C111        C  0.84476322  0.05432361  0.52827316     0.01500
H112        H  0.89030381  0.08205577  0.52642350     0.09200
H113        H  0.82782302  0.04972649  0.53137025     0.08200
N114        N  0.93486435  0.02446353  0.50258972    -0.35600
N115        N  0.93482595  0.00530809  0.50197715    -0.27800
C116        C  0.95318766  0.99922587  0.49461194    -0.03000
C117        C  0.96538157  0.01532662  0.49038295     0.05600
C118        C  0.95332508  0.03111055  0.49561043     0.03700
H119        H  0.95714839  0.98419672  0.49230746     0.08800
H120        H  0.95740917  0.04628753  0.49424192     0.07600
N121        N  0.78772052  0.55777460  0.92282068    -0.26800
N122        N  0.80503895  0.54828717  0.91710033    -0.34600
C123        C  0.81880588  0.56102688  0.91040419     0.01600
C124        C  0.80995712  0.57942166  0.91221056     0.07600
C125        C  0.79029791  0.57690171  0.92021223    -0.05500
H126        H  0.83364830  0.55710866  0.90412013     0.08300
H127        H  0.77789043  0.58795160  0.92286237     0.09500
Cu128      Cu  0.80773642  0.51835234  0.91671244     0.44200
Cu129      Cu  0.75933652  0.54383549  0.93102402     0.42000
Cu130      Cu  0.75441252  0.49216217  0.92169134     0.43900
N131        N  0.80416568  0.48867849  0.91341356    -0.34100
N132        N  0.78422415  0.47926888  0.91422620    -0.28400
C133        C  0.78695640  0.46066377  0.90980675    -0.04500
C134        C  0.80978414  0.45825805  0.90626456     0.07700
C135        C  0.82022650  0.47626972  0.90875958     0.01500
H136        H  0.77332336  0.44972457  0.90920046     0.09200
H137        H  0.83786972  0.48026119  0.90668078     0.08200
N138        N  0.72893349  0.50808591  0.93194648    -0.35600
N139        N  0.73105738  0.52677705  0.93556774    -0.27800
C140        C  0.71229077  0.53256559  0.94264845    -0.03000
C141        C  0.69764899  0.51681017  0.94359184     0.05600
C142        C  0.70870243  0.50150271  0.93668069     0.03700
H143        H  0.70968822  0.54713917  0.94702328     0.08800
H144        H  0.70276949  0.48661695  0.93547972     0.07600
N145        N  0.72647269  0.77647540  0.58166639    -0.26800
N146        N  0.72883333  0.76378448  0.59408384    -0.34600
C147        C  0.71360428  0.74914886  0.59016317     0.01600
C148        C  0.70107780  0.75284012  0.57451885     0.07600
C149        C  0.70959178  0.77029678  0.56949465    -0.05500
H150        H  0.71204622  0.73666485  0.59805361     0.08300
H151        H  0.70439804  0.77769313  0.55770080     0.09500
Cu152      Cu  0.75316369  0.76644121  0.61549416     0.44200
Cu153      Cu  0.74810661  0.80031551  0.58115211     0.42000
Cu154      Cu  0.79874952  0.80219255  0.61385135     0.43900
N155        N  0.77865716  0.77276423  0.63557422    -0.34100
N156        N  0.79544258  0.78579294  0.63495846    -0.28400
C157        C  0.80841277  0.78718414  0.65018846    -0.04500
C158        C  0.79932238  0.77443190  0.66085518     0.07700
C159        C  0.78049386  0.76547734  0.65119250     0.01500
H160        H  0.82302445  0.79707631  0.65334810     0.09200
H161        H  0.76867317  0.75480392  0.65524370     0.08200
N162        N  0.79502148  0.81935800  0.59251782    -0.35600
N163        N  0.77588185  0.81937345  0.58118856    -0.27800
C164        C  0.77802473  0.83309224  0.56968227    -0.03000
C165        C  0.79964071  0.84199860  0.57388672     0.05600
C166        C  0.81005383  0.83292515  0.58836211     0.03700
H167        H  0.76481765  0.83628486  0.55903984     0.08800
H168        H  0.82687739  0.83639873  0.59567138     0.07600
N169        N  0.91527776  0.76961969  0.85804191    -0.26800
N170        N  0.91499012  0.77966736  0.84403128    -0.34600
C171        C  0.93122800  0.79379917  0.84649793     0.01600
C172        C  0.94241269  0.79251783  0.86281707     0.07600
C173        C  0.93186449  0.77708316  0.86981605    -0.05500
H174        H  0.93531287  0.80362405  0.83685318     0.08300
H175        H  0.93661570  0.77115944  0.88227184     0.09500
Cu176      Cu  0.89490029  0.77264214  0.82151518     0.44200
Cu177      Cu  0.89495619  0.74500888  0.85991979     0.42000
Cu178      Cu  0.86260603  0.72794899  0.82055220     0.43900
N179        N  0.87454812  0.76219095  0.80020571    -0.34100
N180        N  0.86220217  0.74598019  0.79991017    -0.28400
C181        C  0.85032592  0.74347068  0.78441932    -0.04500
C182        C  0.85570919  0.75872990  0.77450655     0.07700
C183        C  0.87115872  0.77031737  0.78488194     0.01500
H184        H  0.83880786  0.73135148  0.78062842     0.09200
H185        H  0.87913392  0.78375546  0.78163847     0.08200
N186        N  0.86529227  0.71264516  0.84291363    -0.35600
N187        N  0.87592946  0.71930816  0.85744965    -0.27800
C188        C  0.87339160  0.70631868  0.86954530    -0.03000
C189        C  0.86101755  0.69063096  0.86216173     0.05600
C190        C  0.85622616  0.69505009  0.84529602     0.03700
H191        H  0.88054970  0.70795958  0.88263769     0.08800
H192        H  0.84645952  0.68630870  0.83552770     0.07600
N193        N  0.11506184  0.86979208  0.91233007    -0.26800
N194        N  0.11723663  0.85682634  0.92452291    -0.34600
C195        C  0.09848280  0.84497937  0.92245428     0.01600
C196        C  0.08373777  0.85077153  0.90825858     0.07600
C197        C  0.09477144  0.86649248  0.90206335    -0.05500
H198        H  0.09578480  0.83313025  0.93077209     0.08300
H199        H  0.08824814  0.87520444  0.89122057     0.09500
Cu200      Cu  0.14533819  0.85570331  0.94350473     0.44200
Cu201      Cu  0.13902736  0.89211717  0.91157038     0.42000
Cu202      Cu  0.19233513  0.88988275  0.94290429     0.43900
N203        N  0.17655474  0.85434556  0.95965212    -0.34100
N204        N  0.19465964  0.86601794  0.95882539    -0.28400
C205        C  0.21290291  0.86018458  0.97017320    -0.04500
C206        C  0.20557950  0.84430783  0.97861478     0.07700
C207        C  0.18248694  0.84107739  0.97169743     0.01500
H208        H  0.22999910  0.86714933  0.97229902     0.09200
H209        H  0.17103448  0.82956439  0.97482280     0.08200
N210        N  0.18179897  0.91406038  0.92828775    -0.35600
N211        N  0.16265795  0.91472891  0.91694856    -0.27800
C212        C  0.15940189  0.93299991  0.91129521    -0.03000
C213        C  0.17721766  0.94440642  0.91948176     0.05600
C214        C  0.19117863  0.93195388  0.93012915     0.03700
H215        H  0.14429107  0.93784790  0.90267424     0.08800
H216        H  0.20614649  0.93578813  0.93929682     0.07600
N217        N  0.13026249  0.16357561  0.91009707    -0.26800
N218        N  0.14007887  0.17919613  0.91764391    -0.34600
C219        C  0.12750732  0.19489777  0.91194088     0.01600
C220        C  0.10903298  0.18888012  0.90017783     0.07600
C221        C  0.11130663  0.16895945  0.89924946    -0.05500
H222        H  0.13122880  0.20954259  0.91634160     0.08300
H223        H  0.09955680  0.15901863  0.89178460     0.09500
Cu224      Cu  0.16915224  0.17868064  0.93609019     0.44200
Cu225      Cu  0.14168184  0.13551565  0.91581532     0.42000
Cu226      Cu  0.18790882  0.13132511  0.95110125     0.43900
N227        N  0.19651609  0.17405452  0.95536011    -0.34100
N228        N  0.20271694  0.15664328  0.96127549    -0.28400
C229        C  0.22055169  0.15837394  0.97394889    -0.04500
C230        C  0.22592182  0.17782542  0.97597885     0.07700
C231        C  0.21043453  0.18737812  0.96399686     0.01500
H232        H  0.22924199  0.14632550  0.98088817     0.09200
H233        H  0.20924844  0.20284298  0.96178411     0.08200
N234        N  0.17371598  0.10798699  0.93721228    -0.35600
N235        N  0.15672187  0.10935194  0.92431582    -0.27800
C236        C  0.15232761  0.09160219  0.91765973    -0.03000
C237        C  0.16750077  0.07858920  0.92676915     0.05600
C238        C  0.18075583  0.08944180  0.93904495     0.03700
H239        H  0.13951848  0.08853692  0.90676480     0.08800
H240        H  0.19477585  0.08431542  0.94845981     0.07600
N241        N  0.36474345  0.25678913  0.06800783    -0.26800
N242        N  0.35953629  0.24353349  0.07876667    -0.34600
C243        C  0.34461703  0.23056361  0.07060471     0.01600
C244        C  0.33993754  0.23611447  0.05401101     0.07600
C245        C  0.35296322  0.25277441  0.05274351    -0.05500
H246        H  0.33660415  0.21869908  0.07653428     0.08300
H247        H  0.35328251  0.26167792  0.04171764     0.09500
Cu248      Cu  0.36883512  0.24551373  0.10445424     0.44200
Cu249      Cu  0.38543003  0.28085016  0.07480349     0.42000
Cu250      Cu  0.39266120  0.29187829  0.11900454     0.43900
N251        N  0.37324549  0.25387054  0.12935578    -0.34100
N252        N  0.38164456  0.27099172  0.13460518    -0.28400
C253        C  0.38087507  0.27254726  0.15114981    -0.04500
C254        C  0.37144386  0.25564041  0.15653550     0.07700
C255        C  0.36680318  0.24407593  0.14241866     0.01500
H256        H  0.38632389  0.28522317  0.15862268     0.09200
H257        H  0.35880567  0.22983740  0.14157360     0.08200
N258        N  0.40365928  0.31002881  0.10120214    -0.35600
N259        N  0.40203642  0.30554766  0.08511577    -0.27800
C260        C  0.41165579  0.31986710  0.07702228    -0.03000
C261        C  0.41935742  0.33411845  0.08854933     0.05600
C262        C  0.41399882  0.32747837  0.10375119     0.03700
H263        H  0.41260768  0.32002377  0.06369581     0.08800
H264        H  0.41770428  0.33459180  0.11581306     0.07600
N265        N  0.33415350  0.24137744  0.35298091    -0.26800
N266        N  0.34257231  0.25281242  0.34207648    -0.34600
C267        C  0.35496534  0.26723569  0.35040491     0.01600
C268        C  0.35456240  0.26459092  0.36737628     0.07600
C269        C  0.34125642  0.24803237  0.36859349    -0.05500
H270        H  0.36426358  0.27841954  0.34457298     0.08300
H271        H  0.33714267  0.24125973  0.37994292     0.09500
Cu272      Cu  0.33861382  0.24699458  0.31658985     0.44200
Cu273      Cu  0.31392473  0.21710395  0.34579925     0.42000
Cu274      Cu  0.31078338  0.20105453  0.30249255     0.43900
N275        N  0.33585943  0.23669040  0.29221238    -0.34100
N276        N  0.32614882  0.21992439  0.28711121    -0.28400
C277        C  0.32787238  0.21755124  0.27073929    -0.04500
C278        C  0.33918558  0.23356796  0.26533097     0.07700
C279        C  0.34399567  0.24541011  0.27924617     0.01500
H280        H  0.32133669  0.20509856  0.26332955     0.09200
H281        H  0.35288413  0.25928471  0.27997810     0.08200
N282        N  0.29505784  0.18642304  0.32053765    -0.35600
N283        N  0.29555356  0.19283535  0.33607101    -0.27800
C284        C  0.28273814  0.18093009  0.34440025    -0.03000
C285        C  0.27400493  0.16618433  0.33371876     0.05600
C286        C  0.28215113  0.17003094  0.31866769     0.03700
H287        H  0.28008120  0.18283531  0.35734009     0.08800
H288        H  0.27852235  0.16184258  0.30712865     0.07600
N289        N  0.50208540  0.55053857  0.05169922    -0.26800
N290        N  0.49385705  0.53983620  0.06319949    -0.34600
C291        C  0.47997243  0.55083873  0.07154241     0.01600
C292        C  0.47923672  0.56932586  0.06486266     0.07600
C293        C  0.49345937  0.56865391  0.05233241    -0.05500
H294        H  0.47007129  0.54545172  0.08106777     0.08300
H295        H  0.49663609  0.58026682  0.04390920     0.09500
Cu296      Cu  0.49829243  0.51015255  0.06513521     0.44200
Cu297      Cu  0.52285231  0.53946603  0.03471437     0.42000
Cu298      Cu  0.52220451  0.48730301  0.03059356     0.43900
N299        N  0.49845279  0.48054678  0.06124869    -0.34100
N300        N  0.50641842  0.47226849  0.04832602    -0.28400
C301        C  0.50220506  0.45311751  0.04866499    -0.04500
C302        C  0.49102542  0.44921961  0.06244770     0.07700
C303        C  0.48897318  0.46689743  0.07016626     0.01500
H304        H  0.50651112  0.44291076  0.03934587     0.09200
H305        H  0.48042491  0.46976003  0.08107927     0.08200
N306        N  0.54102470  0.50539080  0.01677339    -0.35600
N307        N  0.54184925  0.52443989  0.01864753    -0.27800
C308        C  0.55743904  0.53174197  0.00926589    -0.03000
C309        C  0.56681262  0.51654164  0.00107986     0.05600
C310        C  0.55593105  0.50007434  0.00606661     0.03700
H311        H  0.56209155  0.54691190  0.00885988     0.08800
H312        H  0.55939780  0.48523680  0.00278004     0.07600
N313        N  0.15630226  0.04868629  0.37912559    -0.26800
N314        N  0.16525889  0.03753473  0.36822323    -0.34600
C315        C  0.17827830  0.04842154  0.35918302     0.01600
C316        C  0.17774732  0.06731056  0.36472560     0.07600
C317        C  0.16359429  0.06704032  0.37735334    -0.05500
H318        H  0.18851053  0.04277021  0.34993674     0.08300
H319        H  0.15958633  0.07909756  0.38507994     0.09500
Cu320      Cu  0.16326078  0.00765607  0.36774456     0.44200
Cu321      Cu  0.13628218  0.03790381  0.39674019     0.42000
Cu322      Cu  0.13806011  0.98470086  0.40024984     0.43900
N323        N  0.16603082  0.97820178  0.37216980    -0.34100
N324        N  0.15739730  0.96959149  0.38462179    -0.28400
C325        C  0.16351230  0.95070613  0.38494508    -0.04500
C326        C  0.17651965  0.94736912  0.37197371     0.07700
C327        C  0.17775695  0.96511497  0.36414820     0.01500
H328        H  0.15887738  0.94024388  0.39393838     0.09200
H329        H  0.18698603  0.96842918  0.35366236     0.08200
N330        N  0.11826788  0.00272671  0.41340949    -0.35600
N331        N  0.11749770  0.02187934  0.41234093    -0.27800
C332        C  0.10196236  0.02857242  0.42210434    -0.03000
C333        C  0.09250956  0.01285949  0.42951573     0.05600
C334        C  0.10327421  0.99675830  0.42375197     0.03700
H335        H  0.09734339  0.04368122  0.42328533     0.08800
H336        H  0.10006214  0.98172384  0.42649601     0.07600
N337        N  0.31167213  0.74203729  0.07290008    -0.26800
N338        N  0.29662380  0.74671767  0.08331145    -0.34600
C339        C  0.28056577  0.75921511  0.07566481     0.01600
C340        C  0.28591260  0.76277573  0.05975449     0.07600
C341        C  0.30578402  0.75176211  0.05840413    -0.05500
H342        H  0.26634001  0.76552520  0.08140950     0.08300
H343        H  0.31496743  0.75057512  0.04758395     0.09500
Cu344      Cu  0.29906942  0.73711744  0.10781883     0.44200
Cu345      Cu  0.33840050  0.72160608  0.07860218     0.42000
Cu346      Cu  0.34488716  0.70302006  0.12139907     0.43900
N347        N  0.30740497  0.72845498  0.13252249    -0.34100
N348        N  0.32460395  0.71610924  0.13762695    -0.28400
C349        C  0.32664559  0.71436234  0.15440713    -0.04500
C350        C  0.30988545  0.72622043  0.16008260     0.07700
C351        C  0.29800429  0.73491623  0.14588556     0.01500
H352        H  0.33974290  0.70550430  0.16190556     0.09200
H353        H  0.28406508  0.74561752  0.14534652     0.08200
N354        N  0.36190132  0.69145255  0.10257582    -0.35600
N355        N  0.36008734  0.69837454  0.08712073    -0.27800
C356        C  0.37296832  0.68716503  0.07811308    -0.03000
C357        C  0.38314672  0.67245539  0.08840049     0.05600
C358        C  0.37574804  0.67561312  0.10376897     0.03700
H359        H  0.37421147  0.68923515  0.06494767     0.08800
H360        H  0.37992754  0.66692416  0.11498281     0.07600
N361        N  0.31988965  0.76192057  0.35919728    -0.26800
N362        N  0.33132238  0.75465773  0.34743482    -0.34600
C363        C  0.34852216  0.74280267  0.35455777     0.01600
C364        C  0.34763046  0.74227657  0.37157609     0.07600
C365        C  0.32925367  0.75449654  0.37415312    -0.05500
H366        H  0.36072025  0.73507843  0.34781472     0.08300
H367        H  0.32377384  0.75833679  0.38605024     0.09500
Cu368      Cu  0.32278650  0.76059934  0.32216718     0.44200
Cu369      Cu  0.29390118  0.78314128  0.35420966     0.42000
Cu370      Cu  0.27973076  0.79753498  0.31000015     0.43900
N371        N  0.30923440  0.76622365  0.29749053    -0.34100
N372        N  0.29316113  0.77967134  0.29283962    -0.28400
C373        C  0.28726237  0.77893601  0.27604815    -0.04500
C374        C  0.30032825  0.76428674  0.26996045     0.07700
C375        C  0.31406038  0.75660096  0.28387633     0.01500
H376        H  0.27429838  0.78821558  0.26888294     0.09200
H377        H  0.32637721  0.74464264  0.28414026     0.08200
N378        N  0.26806015  0.81207650  0.32989790    -0.35600
N379        N  0.27234078  0.80652652  0.34577915    -0.27800
C380        C  0.26188595  0.81909902  0.35523821    -0.03000
C381        C  0.25072830  0.83326937  0.34481064     0.05600
C382        C  0.25507415  0.82840958  0.32888663     0.03700
H383        H  0.26300468  0.81832038  0.36874693     0.08800
H384        H  0.24929004  0.83621551  0.31738429     0.07600
C385        C  0.30926258  0.74225291  0.23220498     0.30300
C386        C  0.32051841  0.73000625  0.22190314    -0.36000
C387        C  0.31250147  0.73119063  0.20468024     0.16300
C388        C  0.29454219  0.74350432  0.19803119     0.22100
C389        C  0.28309316  0.75562744  0.20836937    -0.34200
C390        C  0.29125090  0.75455300  0.22561579     0.16200
O391        O  0.31462220  0.74401647  0.24857571    -0.26200
C392        C  0.29992385  0.75764971  0.25257577     0.06000
C393        C  0.28491218  0.76474266  0.23880256    -0.31100
O394        O  0.29082853  0.74302069  0.18149869    -0.22900
C395        C  0.30660771  0.73023617  0.17753739    -0.02900
C396        C  0.32048294  0.72232820  0.19146414    -0.17300
H397        H  0.33493310  0.72056432  0.22693551     0.20700
H398        H  0.26924576  0.76556885  0.20328255     0.19100
H399        H  0.27153475  0.77590236  0.23852107     0.19000
H400        H  0.33492442  0.71211051  0.19179679     0.14900
C401        C  0.22329456  0.87829204  0.34778363     0.30300
C402        C  0.21621430  0.89701866  0.34254736    -0.36000
C403        C  0.20486765  0.90785315  0.35376212     0.16300
C404        C  0.20043559  0.90074428  0.36903201     0.22100
C405        C  0.20764406  0.88196934  0.37433395    -0.34200
C406        C  0.21934322  0.87117895  0.36317178     0.16200
O407        O  0.23451882  0.86585695  0.33931848    -0.26200
C408        C  0.23810158  0.85060304  0.34944527     0.06000
C409        C  0.22908535  0.85306637  0.36450130    -0.31100
O410        O  0.18959799  0.91355556  0.37749877    -0.22900
C411        C  0.18730221  0.92905302  0.36751941    -0.02900
C412        C  0.19652101  0.92630679  0.35262312    -0.17300
H413        H  0.21955787  0.90282098  0.33062066     0.20700
H414        H  0.20459734  0.87627192  0.38636326     0.19100
H415        H  0.22962083  0.84299886  0.37485539     0.19000
H416        H  0.19703552  0.93644490  0.34242596     0.14900
C417        C  0.44591846  0.61178548  0.06668981     0.30300
C418        C  0.43609851  0.62971806  0.06115328    -0.36000
C419        C  0.42109641  0.63837780  0.07138448     0.16300
C420        C  0.41628080  0.63003868  0.08611157     0.22100
C421        C  0.42587614  0.61202560  0.09154468    -0.34200
C422        C  0.44072442  0.60331879  0.08126329     0.16200
O423        O  0.46041870  0.60113743  0.05911248    -0.26200
C424        C  0.46441534  0.58560800  0.06891458     0.06000
C425        C  0.45258478  0.58615958  0.08286070    -0.31100
O426        O  0.40233046  0.64087635  0.09396515    -0.22900
C427        C  0.39796311  0.65629425  0.08408571    -0.02900
C428        C  0.40907159  0.65550876  0.06979835    -0.17300
H429        H  0.43992869  0.63645561  0.04971100     0.20700
H430        H  0.42210303  0.60531323  0.10301275     0.19100
H431        H  0.45269393  0.57548412  0.09271695     0.19000
H432        H  0.40869656  0.66614938  0.05989069     0.14900
C433        C  0.21450899  0.09889150  0.34624795     0.30300
C434        C  0.22947692  0.10472749  0.33476605    -0.36000
C435        C  0.23961719  0.12318707  0.33744357     0.16300
C436        C  0.23553579  0.13490147  0.35064856     0.22100
C437        C  0.22047591  0.12912937  0.36202380    -0.34200
C438        C  0.21011680  0.11082813  0.35922394     0.16200
O439        O  0.20346681  0.08213340  0.34633310    -0.26200
C440        C  0.19170044  0.08346701  0.35943105     0.06000
C441        C  0.19511239  0.10102784  0.36788916    -0.31100
O442        O  0.24712621  0.15139492  0.35103515    -0.22900
C443        C  0.25859947  0.15040078  0.33780985    -0.02900
C444        C  0.25458911  0.13319723  0.32881818    -0.17300
H445        H  0.23300052  0.09551997  0.32451657     0.20700
H446        H  0.21711710  0.13826538  0.37236080     0.19100
H447        H  0.18806993  0.10568929  0.37902686     0.19000
H448        H  0.26186333  0.12866271  0.31773544     0.14900
C449        C  0.46364252  0.41029490  0.07986611     0.30300
C450        C  0.45099021  0.40088241  0.09122320    -0.36000
C451        C  0.44459126  0.38160906  0.08732719     0.16300
C452        C  0.45004633  0.37235039  0.07314715     0.22100
C453        C  0.46289782  0.38167669  0.06192435    -0.34200
C454        C  0.46946007  0.40084660  0.06588795     0.16200
O455        O  0.47078182  0.42848321  0.08069623    -0.26200
C456        C  0.48139955  0.43060810  0.06712577     0.06000
C457        C  0.48121740  0.41386331  0.05750648    -0.31100
O458        O  0.44178865  0.35453811  0.07167944    -0.22900
C459        C  0.43115650  0.35224901  0.08518841    -0.02900
C460        C  0.43235965  0.36857333  0.09542657    -0.17300
H461        H  0.44627454  0.40812662  0.10222048     0.20700
H462        H  0.46727362  0.37453709  0.05077937     0.19100
H463        H  0.48812618  0.41173601  0.04579473     0.19000
H464        H  0.42498868  0.37060944  0.10697416     0.14900
C465        C  0.36430300  0.25548029  0.19897070     0.30300
C466        C  0.36555384  0.26303162  0.21523349    -0.36000
C467        C  0.35681713  0.25106802  0.22699247     0.16300
C468        C  0.34745086  0.23293097  0.22303696     0.22100
C469        C  0.34624189  0.22535706  0.20676344    -0.34200
C470        C  0.35500513  0.23732395  0.19499487     0.16200
O471        O  0.37133804  0.26423824  0.18601973    -0.26200
C472        C  0.36652167  0.25153343  0.17358552     0.06000
C473        C  0.35633100  0.23451157  0.17841816    -0.31100
O474        O  0.34007627  0.22434146  0.23596762    -0.22900
C475        C  0.34482106  0.23714088  0.24835073    -0.02900
C476        C  0.35527723  0.25402592  0.24349823    -0.17300
H477        H  0.37276505  0.27726454  0.21847479     0.20700
H478        H  0.33890947  0.21117017  0.20349690     0.19100
H479        H  0.35065444  0.22196262  0.17083509     0.19000
H480        H  0.36077422  0.26668650  0.25098623     0.14900
C481        C  0.29964882  0.20659906  0.02906714     0.30300
C482        C  0.28653164  0.18974935  0.02477449    -0.36000
C483        C  0.27078963  0.19060236  0.00981749     0.16300
C484        C  0.26789868  0.20698253  0.99987634     0.22100
C485        C  0.28121303  0.22378098  0.00407966    -0.34200
C486        C  0.29720504  0.22284010  0.01893805     0.16200
O487        O  0.31506362  0.20910045  0.04264722    -0.26200
C488        C  0.32283500  0.22706585  0.04108332     0.06000
C489        C  0.31242154  0.23633178  0.02656165    -0.31100
O490        O  0.25170659  0.20470315  0.98667747    -0.22900
C491        C  0.24435760  0.18657906  0.98812987    -0.02900
C492        C  0.25565923  0.17706846  0.00223824    -0.17300
H493        H  0.28839446  0.17691941  0.03258348     0.20700
H494        H  0.27918188  0.23667460  0.99635500     0.19100
H495        H  0.31522149  0.25098303  0.02245893     0.19000
H496        H  0.25285700  0.16245416  0.00642923     0.14900
C497        C  0.26627791  0.79463977  0.02681954     0.30300
C498        C  0.26822288  0.80693311  0.01319021    -0.36000
C499        C  0.24746130  0.81652923  0.00630127     0.16300
C500        C  0.22615412  0.81383676  0.01218094     0.22100
C501        C  0.22428426  0.80180173  0.02595027    -0.34200
C502        C  0.24512603  0.79253736  0.03304016     0.16200
O503        O  0.28340383  0.78423417  0.03518608    -0.26200
C504        C  0.27312649  0.77563727  0.04705587     0.06000
C505        C  0.24936512  0.78031757  0.04636938    -0.31100
O506        O  0.20874837  0.82343131  0.00335576    -0.22900
C507        C  0.21910248  0.83269284  0.99188410    -0.02900
C508        C  0.24320357  0.82908533  0.99315142    -0.17300
H509        H  0.28475339  0.80886155  0.00829103     0.20700
H510        H  0.20770636  0.79975382  0.03076420     0.19100
H511        H  0.23699759  0.77529777  0.05443685     0.19000
H512        H  0.25552228  0.83433091  0.98514215     0.14900
C513        C  0.18330522  0.02960383  0.92677226     0.30300
C514        C  0.19634050  0.01303874  0.93234036    -0.36000
C515        C  0.18771746  0.99541455  0.92531698     0.16300
C516        C  0.16770988  0.99419759  0.91357229     0.22100
C517        C  0.15488085  0.01080518  0.90781126    -0.34200
C518        C  0.16344721  0.02842247  0.91488809     0.16200
O519        O  0.18740606  0.04738434  0.93237650    -0.26200
C520        C  0.17002648  0.05773518  0.92392672     0.06000
C521        C  0.15461790  0.04674002  0.91280240    -0.31100
O522        O  0.16187288  0.97614831  0.90958580    -0.22900
C523        C  0.17836299  0.96566847  0.91886375    -0.02900
C524        C  0.19500864  0.97688347  0.92882843    -0.17300
H525        H  0.21167716  0.01377654  0.94186695     0.20700
H526        H  0.13892327  0.00997576  0.89885627     0.19100
H527        H  0.13888095  0.05144674  0.90474531     0.19000
H528        H  0.20965566  0.97208587  0.93789219     0.14900
C529        C  0.99253788  0.81142997  0.88733570     0.30300
C530        C  0.01034709  0.81240557  0.90116243    -0.36000
C531        C  0.02896506  0.82512931  0.89957616     0.16300
C532        C  0.02994429  0.83628815  0.88545937     0.22100
C533        C  0.01206288  0.83538463  0.87165387    -0.34200
C534        C  0.99350414  0.82255086  0.87319449     0.16200
O535        O  0.97412980  0.79977127  0.88576029    -0.26200
C536        C  0.96316266  0.80349334  0.87041462     0.06000
C537        C  0.97435976  0.81759906  0.86203557    -0.31100
O538        O  0.04924771  0.84691787  0.88660754    -0.22900
C539        C  0.06077910  0.84238035  0.90161652    -0.02900
C540        C  0.04900146  0.82891095  0.91023803    -0.17300
H541        H  0.00996975  0.80358052  0.91220897     0.20700
H542        H  0.01278231  0.84379796  0.86041754     0.19100
H543        H  0.96957461  0.82294074  0.84938599     0.19000
H544        H  0.05442261  0.82275919  0.92253290     0.14900
C545        C  0.82734396  0.77555724  0.70237953     0.30300
C546        C  0.84397466  0.78169803  0.71581734    -0.36000
C547        C  0.84267969  0.77272348  0.73126782     0.16300
C548        C  0.82624320  0.75861028  0.73334111     0.22100
C549        C  0.80947575  0.75258205  0.71992719    -0.34200
C550        C  0.81073930  0.76159279  0.70447570     0.16200
O551        O  0.82553542  0.78185451  0.68681195    -0.26200
C552        C  0.80753009  0.77181683  0.67882729     0.06000
C553        C  0.79758479  0.75900020  0.68918449    -0.31100
O554        O  0.82862374  0.75183889  0.74878870    -0.22900
C555        C  0.84670108  0.76184824  0.75672261    -0.02900
C556        C  0.85611417  0.77510032  0.74646928    -0.17300
H557        H  0.85707787  0.79260225  0.71430526     0.20700
H558        H  0.79650916  0.74155240  0.72140417     0.19100
H559        H  0.78291374  0.74918541  0.68592809     0.19000
H560        H  0.87090922  0.78480775  0.74967325     0.14900
C561        C  0.64865801  0.52622925  0.96410546     0.30300
C562        C  0.63411954  0.53742030  0.97302624    -0.36000
C563        C  0.61542057  0.52756788  0.97882112     0.16300
C564        C  0.61130087  0.50803671  0.97605882     0.22100
C565        C  0.62572986  0.49687103  0.96700151    -0.34200
C566        C  0.64445772  0.50673042  0.96120475     0.16200
O567        O  0.66763214  0.53234305  0.95811036    -0.26200
C568        C  0.67572405  0.51658084  0.95124580     0.06000
C569        C  0.66196351  0.50020689  0.95274374    -0.31100
O570        O  0.59344826  0.50163306  0.98325082    -0.22900
C571        C  0.58597279  0.51729064  0.99064570    -0.02900
C572        C  0.59894456  0.53385995  0.98825538    -0.17300
H573        H  0.63742248  0.55265961  0.97554115     0.20700
H574        H  0.62283619  0.48150844  0.96490703     0.19100
H575        H  0.66473657  0.48557883  0.94855348     0.19000
H576        H  0.59699086  0.54828986  0.99316693     0.14900
C577        C  0.83329437  0.61538507  0.88873280     0.30300
C578        C  0.84403408  0.62273831  0.87545171    -0.36000
C579        C  0.84692660  0.64289482  0.87518250     0.16300
C580        C  0.84024556  0.65498132  0.88736201     0.22100
C581        C  0.82913824  0.64764002  0.90052370    -0.34200
C582        C  0.82575053  0.62747927  0.90058106     0.16200
O583        O  0.82890983  0.59699123  0.89137618    -0.26200
C584        C  0.81807054  0.59728318  0.90493302     0.06000
C585        C  0.81541645  0.61585818  0.91116411    -0.31100
O586        O  0.84484651  0.67337199  0.88467428    -0.22900
C587        C  0.85415541  0.67301130  0.87043565    -0.02900
C588        C  0.85578886  0.65448721  0.86391747    -0.17300
H589        H  0.84955799  0.61341100  0.86592339     0.20700
H590        H  0.82336666  0.65698827  0.90994338     0.19100
H591        H  0.80740928  0.62009420  0.92201526     0.19000
H592        H  0.86252836  0.65024084  0.85255065     0.14900
C593        C  0.01338693  0.00516850  0.46919888     0.30300
C594        C  0.02885488  0.99344462  0.46156922    -0.36000
C595        C  0.04592238  0.00325682  0.45390682     0.16300
C596        C  0.04765201  0.02322156  0.45369974     0.22100
C597        C  0.03226062  0.03494229  0.46142639    -0.34200
C598        C  0.01519524  0.02513112  0.46911209     0.16200
O599        O  0.99578777  0.99908826  0.47677470    -0.26200
C600        C  0.98622199  0.01536640  0.48162068     0.06000
C601        C  0.99758063  0.03201996  0.47722182    -0.31100
O602        O  0.06444644  0.02931414  0.44530913    -0.22900
C603        C  0.07362881  0.01302225  0.44015072    -0.02900
C604        C  0.06284346  0.99637374  0.44518440    -0.17300
H605        H  0.02750076  0.97778594  0.46144241     0.20700
H606        H  0.03331693  0.05061104  0.46126811     0.19100
H607        H  0.99331551  0.04699972  0.47947832     0.19000
H608        H  0.06652599  0.98139301  0.44247500     0.14900
C609        C  0.82639119  0.91288687  0.54001882     0.30300
C610        C  0.80622300  0.90205258  0.54184552    -0.36000
C611        C  0.81015543  0.88485784  0.55105935     0.16300
C612        C  0.83234231  0.87887149  0.55824566     0.22100
C613        C  0.85258113  0.88950740  0.55612178    -0.34200
C614        C  0.84867925  0.90655593  0.54665962     0.16200
O615        O  0.82674226  0.92976343  0.53240985    -0.26200
C616        C  0.84957166  0.93409014  0.53393705     0.06000
C617        C  0.86408032  0.92015835  0.54258235    -0.31100
O618        O  0.83170937  0.86290541  0.56716466    -0.22900
C619        C  0.80886470  0.85850690  0.56540823    -0.02900
C620        C  0.79465094  0.87155513  0.55543610    -0.17300
H621        H  0.78868025  0.90682928  0.53665507     0.20700
H622        H  0.87007474  0.88496343  0.56164467     0.19100
H623        H  0.88309452  0.92036988  0.54584281     0.19000
H624        H  0.77560806  0.87160299  0.55237906     0.14900
C625        C  0.84564367  0.42112296  0.89384480     0.30300
C626        C  0.86682268  0.41169744  0.89171380    -0.36000
C627        C  0.86447967  0.39411224  0.88282852     0.16300
C628        C  0.84280189  0.38653705  0.87626498     0.22100
C629        C  0.82167505  0.39576971  0.87864564    -0.34200
C630        C  0.82400709  0.41315300  0.88773765     0.16200
O631        O  0.84360468  0.43800121  0.90125936    -0.26200
C632        C  0.82036131  0.44067424  0.90009497     0.06000
C633        C  0.80731928  0.42563139  0.89189019    -0.31100
O634        O  0.84467323  0.37047299  0.86768645    -0.22900
C635        C  0.86783404  0.36750195  0.86897216    -0.02900
C636        C  0.88107218  0.38167327  0.87833612    -0.17300
H637        H  0.88390930  0.41775186  0.89647739     0.20700
H638        H  0.80459647  0.38991376  0.87358890     0.19100
H639        H  0.78832316  0.42438422  0.88895191     0.19000
H640        H  0.90009645  0.38292916  0.88097418     0.14900
C641        C  0.06723771  0.22467168  0.88683759     0.30300
C642        C  0.05569535  0.24255016  0.88750367    -0.36000
C643        C  0.03511958  0.24500044  0.87600828     0.16300
C644        C  0.02666863  0.23092729  0.86451990     0.22100
C645        C  0.03817565  0.21302942  0.86387680    -0.34200
C646        C  0.05859515  0.21049552  0.87550638     0.16200
O647        O  0.08634923  0.21908069  0.89675061    -0.26200
C648        C  0.08988234  0.20105140  0.89178452     0.06000
C649        C  0.07317727  0.19491384  0.87860343    -0.31100
O650        O  0.00703683  0.23622964  0.85505843    -0.22900
C651        C  0.00276532  0.25385599  0.86064514    -0.02900
C652        C  0.01962189  0.26008223  0.87368857    -0.17300
H653        H  0.06210170  0.25362680  0.89650172     0.20700
H654        H  0.03149851  0.20179909  0.85510982     0.19100
H655        H  0.07180957  0.18097089  0.87238643     0.19000
H656        H  0.02030822  0.27365769  0.88047133     0.14900
C657        C  0.80371694  0.13389166  0.56219411     0.30300
C658        C  0.79907485  0.11810126  0.55129434    -0.36000
C659        C  0.81888652  0.10832598  0.54708418     0.16300
C660        C  0.84176131  0.11385072  0.55294560     0.22100
C661        C  0.84642120  0.12956504  0.56400710    -0.34200
C662        C  0.82654945  0.13916544  0.56845091     0.16200
O663        O  0.78778845  0.14505240  0.56774164    -0.26200
C664        C  0.80053982  0.15749298  0.57786204     0.06000
C665        C  0.82476737  0.15448295  0.57888303    -0.31100
O666        O  0.85757243  0.10239312  0.54752067    -0.22900
C667        C  0.84456605  0.08927745  0.53826885    -0.02900
C668        C  0.82042534  0.09224046  0.53756806    -0.17300
H669        H  0.78124703  0.11362344  0.54656437     0.20700
H670        H  0.86424565  0.13384668  0.56895447     0.19100
H671        H  0.83894806  0.16260206  0.58602572     0.19000
H672        H  0.80611744  0.08358832  0.53119458     0.14900
C673        C  0.82941035  0.25387331  0.70712769     0.30300
C674        C  0.84755755  0.24871248  0.71994193    -0.36000
C675        C  0.84871717  0.25942814  0.73482126     0.16300
C676        C  0.83310233  0.27420050  0.73695773     0.22100
C677        C  0.81496648  0.27938661  0.72411804    -0.34200
C678        C  0.81379243  0.26865738  0.70922486     0.16200
O679        O  0.82496045  0.24564922  0.69226076    -0.26200
C680        C  0.80624159  0.25525831  0.68471770     0.06000
C681        C  0.79850726  0.26976910  0.69465682    -0.31100
O682        O  0.83745815  0.28227236  0.75191469    -0.22900
C683        C  0.85611690  0.27255997  0.75943253    -0.02900
C684        C  0.86389184  0.25816874  0.74939581    -0.17300
H685        H  0.85986087  0.23712610  0.71842783     0.20700
H686        H  0.80261943  0.29093149  0.72565039     0.19100
H687        H  0.78373473  0.27957707  0.69164510     0.19000
H688        H  0.87857655  0.24826511  0.75237513     0.14900
C689        C  0.38521941  0.29963674  0.39343505     0.30300
C690        C  0.39672622  0.31737363  0.39734969    -0.36000
C691        C  0.40821451  0.31932317  0.41385101     0.16300
C692        C  0.40860123  0.30471842  0.42560630     0.22100
C693        C  0.39667544  0.28714984  0.42179421    -0.34200
C694        C  0.38496668  0.28528934  0.40535677     0.16200
O695        O  0.37438730  0.29434530  0.37858006    -0.26200
C696        C  0.36681340  0.27648556  0.38107349     0.06000
C697        C  0.37274179  0.27012979  0.39752565    -0.31100
O698        O  0.42165596  0.30913901  0.43992768    -0.22900
C699        C  0.42945076  0.32692159  0.43742034    -0.02900
C700        C  0.42152664  0.33407320  0.42145818    -0.17300
H701        H  0.39710739  0.32868573  0.38809201     0.20700
H702        H  0.39693018  0.27559472  0.43089777     0.19100
H703        H  0.36933128  0.25613956  0.40276771     0.19000
H704        H  0.42572367  0.34778809  0.41606759     0.14900
C705        C  0.60410548  0.29793546  0.54415750     0.30300
C706        C  0.61617562  0.28012321  0.54519178    -0.36000
C707        C  0.63581516  0.27872456  0.55773982     0.16300
C708        C  0.64297165  0.29375153  0.56859501     0.22100
C709        C  0.63103038  0.31159682  0.56747389    -0.34200
C710        C  0.61150767  0.31303633  0.55486548     0.16200
O711        O  0.58527954  0.30244995  0.53339694    -0.26200
C712        C  0.58068137  0.32073134  0.53719973     0.06000
C713        C  0.59645347  0.32806305  0.55044281    -0.31100
O714        O  0.66150701  0.28917885  0.57956973    -0.22900
C715        C  0.66640687  0.27101429  0.57564504    -0.02900
C716        C  0.65105560  0.26377319  0.56211598    -0.17300
H717        H  0.61064157  0.26821072  0.53682949     0.20700
H718        H  0.63654689  0.32349976  0.57585186     0.19100
H719        H  0.59674842  0.34234759  0.55602216     0.19000
H720        H  0.65096266  0.24952915  0.55647680     0.14900
C721        C  0.40698987  0.69733679  0.42441213     0.30300
C722        C  0.38334084  0.70309301  0.42012168    -0.36000
C723        C  0.37840391  0.71469054  0.40572378     0.16300
C724        C  0.39547728  0.71983182  0.39601165     0.22100
C725        C  0.41914998  0.71439701  0.40046989    -0.34200
C726        C  0.42416353  0.70320283  0.41504950     0.16200
O727        O  0.41560977  0.68644945  0.43731903    -0.26200
C728        C  0.43862332  0.68567800  0.43633252     0.06000
C729        C  0.44498018  0.69592475  0.42281141    -0.31100
O730        O  0.38687289  0.73009166  0.38275222    -0.22900
C731        C  0.36409276  0.73191504  0.38415084    -0.02900
C732        C  0.35778228  0.72275246  0.39824578    -0.17300
H733        H  0.36976246  0.69886217  0.42750822     0.20700
H734        H  0.43273215  0.71863132  0.39308469     0.19100
H735        H  0.46237820  0.69754666  0.41914896     0.19000
H736        H  0.34046048  0.72179359  0.40214285     0.14900
C737        C  0.62832442  0.69855885  0.54257598     0.30300
C738        C  0.64566391  0.69967222  0.55667548    -0.36000
C739        C  0.65932745  0.71657390  0.55809501     0.16300
C740        C  0.65631266  0.73133792  0.54640869     0.22100
C741        C  0.63902924  0.73018693  0.53224117    -0.34200
C742        C  0.62522675  0.71331808  0.53088370     0.16200
O743        O  0.61313588  0.68430666  0.53902056    -0.26200
C744        C  0.60010380  0.69001845  0.52488430     0.06000
C745        C  0.60682495  0.70795184  0.51921651    -0.31100
O746        O  0.67072580  0.74601327  0.55050570    -0.22900
C747        C  0.68301148  0.74055053  0.56502290    -0.02900
C748        C  0.67671764  0.72235607  0.57032203    -0.17300
H749        H  0.64807978  0.68830250  0.56601644     0.20700
H750        H  0.63629232  0.74173731  0.52308127     0.19100
H751        H  0.59913301  0.71595704  0.50823050     0.19000
H752        H  0.68372090  0.71460677  0.58162028     0.14900
C753        C  0.48733073  0.52585684  0.49979142     0.30300
C754        C  0.47621743  0.50950766  0.49189547    -0.36000
C755        C  0.48617929  0.49151719  0.49699864     0.16300
C756        C  0.50561026  0.48966301  0.50917039     0.22100
C757        C  0.51666226  0.50604304  0.51716280    -0.34200
C758        C  0.50681609  0.52408709  0.51193481     0.16200
O759        O  0.48174887  0.54408039  0.49621619    -0.26200
C760        C  0.49788100  0.55418702  0.50614645     0.06000
C761        C  0.51389730  0.54251104  0.51627273    -0.31100
O762        O  0.51236660  0.47143268  0.51158937    -0.22900
C763        C  0.49710381  0.46152086  0.50076633    -0.02900
C764        C  0.48041688  0.47329082  0.49138365    -0.17300
H765        H  0.46121235  0.51075864  0.48213402     0.20700
H766        H  0.53218032  0.50483161  0.52649633     0.19100
H767        H  0.52899867  0.54692854  0.52509728     0.19000
H768        H  0.46628880  0.46907531  0.48167353     0.14900
loop_ 
_geom_bond_atom_site_label_1 
_geom_bond_atom_site_label_2 
_geom_bond_distance 
_geom_bond_site_symmetry_2 
_ccdc_geom_bond_type 
N1            N2   1.322       .  A
N1            C5   1.346       .  A
N1           Cu9   2.077       .  S
N2            C3   1.343       .  A
N2           Cu8   2.064       .  S
C3            C4   1.381       .  A
C3            H6   1.081       .  S
C4            C5   1.383       .  A
C4          C744   1.468       .  S
C5            H7   1.082       .  S
Cu8          N11   2.064       .  S
Cu9          N19   2.078       .  S
Cu10         N12   2.078       .  S
Cu10         N18   2.079       .  S
N11          N12   1.322       .  A
N11          C15   1.344       .  A
N12          C13   1.347       .  A
C13          C14   1.383       .  A
C13          H16   1.082       .  S
C14          C15   1.381       .  A
C14         C728   1.467       .  S
C15          H17   1.082       .  S
N18          N19   1.323       .  A
N18          C22   1.345       .  A
N19          C20   1.347       .  A
C20          C21   1.385       .  A
C20          H23   1.082       .  S
C21          C22   1.382       .  A
C21         C760   1.473       .  S
C22          H24   1.082       .  S
N25          N26   1.323       .  A
N25          C29   1.347       .  A
N25         Cu33   2.080       .  S
N26          C27   1.345       .  A
N26         Cu32   2.076       .  S
C27          C28   1.381       .  A
C27          H30   1.082       .  S
C28          C29   1.384       .  A
C28         C699   1.471       .  S
C29          H31   1.082       .  S
Cu32         N35   2.077       .  S
Cu33         N43   2.081       .  S
Cu34         N36   2.080       .  S
Cu34         N42   2.080       .  S
N35          N36   1.323       .  A
N35          C39   1.347       .  A
N36          C37   1.345       .  A
C37          C38   1.384       .  A
C37          H40   1.082       .  S
C38          C39   1.383       .  A
C38         C712   1.474       .  S
C39          H41   1.082       .  S
N42          N43   1.323       .  A
N42          C46   1.347       .  A
N43          C44   1.345       .  A
C44          C45   1.385       .  A
C44          H47   1.082       .  S
C45          C46   1.384       .  A
C45         C763   1.475       .  S
C46          H48   1.082       .  S
N49          N50   1.323       .  A
N49          C53   1.346       .  A
N49         Cu57   2.079       .  S
N50          C51   1.345       .  A
N50         Cu56   2.079       .  S
C51          C52   1.382       .  A
C51          H54   1.082       .  S
C52          C53   1.384       .  A
C52         C715   1.473       .  S
C53          H55   1.082       .  S
Cu56         N59   2.078       .  S
Cu57         N67   2.078       .  S
Cu58         N60   2.063       .  S
Cu58         N66   2.063       .  S
N59          N60   1.322       .  A
N59          C63   1.347       .  A
N60          C61   1.342       .  A
C61          C62   1.379       .  A
C61          H64   1.082       .  S
C62          C63   1.385       .  A
C62         C680   1.469       .  S
C63          H65   1.081       .  S
N66          N67   1.322       .  A
N66          C70   1.344       .  A
N67          C68   1.345       .  A
C68          C69   1.383       .  A
C68          H71   1.082       .  S
C69          C70   1.381       .  A
C69         C664   1.467       .  S
C70          H72   1.082       .  S
N73          N74   1.323       .  A
N73          C77   1.347       .  A
N73         Cu81   2.080       .  S
N74          C75   1.342       .  A
N74         Cu80   2.062       .  S
C75          C76   1.378       .  A
C75          H78   1.082       .  S
C76          C77   1.385       .  A
C76         C651   1.466   1_655  S
C77          H79   1.082       .  S
Cu80         N83   2.062       .  S
Cu81         N91   2.080       .  S
Cu82         N84   2.074       .  S
Cu82         N90   2.074       .  S
N83          N84   1.321       .  A
N83          C87   1.344       .  A
N84          C85   1.345       .  A
C85          C86   1.383       .  A
C85          H88   1.082       .  S
C86          C87   1.383       .  A
C86         C683   1.469       .  S
C87          H89   1.081       .  S
N90          N91   1.323       .  A
N90          C94   1.344       .  A
N91          C92   1.347       .  A
C92          C93   1.384       .  A
C92          H95   1.082       .  S
C93          C94   1.380       .  A
C93         C635   1.470       .  S
C94          H96   1.082       .  S
N97          N98   1.321       .  A
N97         C101   1.342       .  A
N97        Cu105   2.061       .  S
N98          C99   1.345       .  A
N98        Cu104   2.069   1_565  S
C99         C100   1.381       .  A
C99         H102   1.082       .  S
C100        C101   1.380       .  A
C100        C616   1.463       .  S
C101        H103   1.082       .  S
Cu104       N107   2.069       .  S
Cu105       N115   2.061   1_565  S
Cu106       N108   2.076       .  S
Cu106       N114   2.076       .  S
N107        N108   1.323       .  A
N107        C111   1.342       .  A
N108        C109   1.347       .  A
C109        C110   1.382       .  A
C109        H112   1.082       .  S
C110        C111   1.380       .  A
C110        C667   1.467       .  S
C111        H113   1.082       .  S
N114        N115   1.322       .  A
N114        C118   1.345       .  A
N115        C116   1.343   1_545  A
C116        C117   1.380   1_565  A
C116        H119   1.082       .  S
C117        C118   1.384       .  A
C117        C600   1.468       .  S
C118        H120   1.082       .  S
N121        N122   1.322       .  A
N121        C125   1.347       .  A
N121       Cu129   2.074       .  S
N122        C123   1.343       .  A
N122       Cu128   2.070       .  S
C123        C124   1.380       .  A
C123        H126   1.082       .  S
C124        C125   1.384       .  A
C124        C584   1.468       .  S
C125        H127   1.082       .  S
Cu128       N131   2.070       .  S
Cu129       N139   2.075       .  S
Cu130       N132   2.084       .  S
Cu130       N138   2.084       .  S
N131        N132   1.323       .  A
N131        C135   1.346       .  A
N132        C133   1.346       .  A
C133        C134   1.385       .  A
C133        H136   1.082       .  S
C134        C135   1.381       .  A
C134        C632   1.471       .  S
C135        H137   1.082       .  S
N138        N139   1.323       .  A
N138        C142   1.348       .  A
N139        C140   1.344       .  A
C140        C141   1.381       .  A
C140        H143   1.082       .  S
C141        C142   1.386       .  A
C141        C568   1.473       .  S
C142        H144   1.081       .  S
N145        N146   1.321       .  A
N145        C149   1.345       .  A
N145       Cu153   2.063       .  S
N146        C147   1.342       .  A
N146       Cu152   2.065       .  S
C147        C148   1.382       .  A
C147        H150   1.081       .  S
C148        C149   1.381       .  A
C148        C747   1.466       .  S
C149        H151   1.082       .  S
Cu152       N155   2.065       .  S
Cu153       N163   2.063       .  S
Cu154       N156   2.072       .  S
Cu154       N162   2.072       .  S
N155        N156   1.322       .  A
N155        C159   1.345       .  A
N156        C157   1.344       .  A
C157        C158   1.382       .  A
C157        H160   1.082       .  S
C158        C159   1.383       .  A
C158        C552   1.468       .  S
C159        H161   1.081       .  S
N162        N163   1.322       .  A
N162        C166   1.345       .  A
N163        C164   1.342       .  A
C164        C165   1.380       .  A
C164        H167   1.082       .  S
C165        C166   1.381       .  A
C165        C619   1.464       .  S
C166        H168   1.082       .  S
N169        N170   1.322       .  A
N169        C173   1.346       .  A
N169       Cu177   2.076       .  S
N170        C171   1.342       .  A
N170       Cu176   2.063       .  S
C171        C172   1.381       .  A
C171        H174   1.081       .  S
C172        C173   1.383       .  A
C172        C536   1.467       .  S
C173        H175   1.081       .  S
Cu176       N179   2.063       .  S
Cu177       N187   2.076       .  S
Cu178       N180   2.073       .  S
Cu178       N186   2.074       .  S
N179        N180   1.321       .  A
N179        C183   1.344       .  A
N180        C181   1.345       .  A
C181        C182   1.382       .  A
C181        H184   1.082       .  S
C182        C183   1.382       .  A
C182        C555   1.468       .  S
C183        H185   1.082       .  S
N186        N187   1.323       .  A
N186        C190   1.344       .  A
N187        C188   1.346       .  A
C188        C189   1.381       .  A
C188        H191   1.082       .  S
C189        C190   1.381       .  A
C189        C587   1.466       .  S
C190        H192   1.082       .  S
N193        N194   1.321       .  A
N193        C197   1.346       .  A
N193       Cu201   2.069       .  S
N194        C195   1.341       .  A
N194       Cu200   2.057       .  S
C195        C196   1.380       .  A
C195        H198   1.082       .  S
C196        C197   1.383       .  A
C196        C539   1.466       .  S
C197        H199   1.082       .  S
Cu200       N203   2.057       .  S
Cu201       N211   2.070       .  S
Cu202       N204   2.079       .  S
Cu202       N210   2.080       .  S
N203        N204   1.321       .  A
N203        C207   1.342       .  A
N204        C205   1.347       .  A
C205        C206   1.385       .  A
C205        H208   1.082       .  S
C206        C207   1.377       .  A
C206        C507   1.465       .  S
C207        H209   1.082       .  S
N210        N211   1.324       .  A
N210        C214   1.346       .  A
N211        C212   1.343       .  A
C212        C213   1.380       .  A
C212        H215   1.082       .  S
C213        C214   1.384       .  A
C213        C523   1.469       .  S
C214        H216   1.082       .  S
N217        N218   1.323       .  A
N217        C221   1.345       .  A
N217       Cu225   2.072       .  S
N218        C219   1.344       .  A
N218       Cu224   2.068       .  S
C219        C220   1.380       .  A
C219        H222   1.081       .  S
C220        C221   1.383       .  A
C220        C648   1.466       .  S
C221        H223   1.082       .  S
Cu224       N227   2.067       .  S
Cu225       N235   2.072       .  S
Cu226       N228   2.060       .  S
Cu226       N234   2.060       .  S
N227        N228   1.321       .  A
N227        C231   1.344       .  A
N228        C229   1.343       .  A
C229        C230   1.381       .  A
C229        H232   1.082       .  S
C230        C231   1.381       .  A
C230        C491   1.464       .  S
C231        H233   1.082       .  S
N234        N235   1.322       .  A
N234        C238   1.342       .  A
N235        C236   1.346       .  A
C236        C237   1.384       .  A
C236        H239   1.082       .  S
C237        C238   1.379       .  A
C237        C520   1.466       .  S
C238        H240   1.082       .  S
N241        N242   1.322       .  A
N241        C245   1.344       .  A
N241       Cu249   2.067       .  S
N242        C243   1.343       .  A
N242       Cu248   2.066       .  S
C243        C244   1.379       .  A
C243        H246   1.082       .  S
C244        C245   1.382       .  A
C244        C488   1.464       .  S
C245        H247   1.082       .  S
Cu248       N251   2.067       .  S
Cu249       N259   2.067       .  S
Cu250       N252   2.068       .  S
Cu250       N258   2.067       .  S
N251        N252   1.322       .  A
N251        C255   1.345       .  A
N252        C253   1.343       .  A
C253        C254   1.381       .  A
C253        H256   1.082       .  S
C254        C255   1.383       .  A
C254        C472   1.467       .  S
C255        H257   1.082       .  S
N258        N259   1.322       .  A
N258        C262   1.344       .  A
N259        C260   1.344       .  A
C260        C261   1.381       .  A
C260        H263   1.082       .  S
C261        C262   1.381       .  A
C261        C459   1.465       .  S
C262        H264   1.082       .  S
N265        N266   1.321       .  A
N265        C269   1.346       .  A
N265       Cu273   2.071       .  S
N266        C267   1.345       .  A
N266       Cu272   2.072       .  S
C267        C268   1.382       .  A
C267        H270   1.082       .  S
C268        C269   1.384       .  A
C268        C696   1.471       .  S
C269        H271   1.082       .  S
Cu272       N275   2.072       .  S
Cu273       N283   2.071       .  S
Cu274       N276   2.076       .  S
Cu274       N282   2.076       .  S
N275        N276   1.323       .  A
N275        C279   1.344       .  A
N276        C277   1.345       .  A
C277        C278   1.382       .  A
C277        H280   1.082       .  S
C278        C279   1.382       .  A
C278        C475   1.469       .  S
C279        H281   1.082       .  S
N282        N283   1.323       .  A
N282        C286   1.348       .  A
N283        C284   1.342       .  A
C284        C285   1.379       .  A
C284        H287   1.082       .  S
C285        C286   1.384       .  A
C285        C443   1.468       .  S
C286        H288   1.082       .  S
N289        N290   1.322       .  A
N289        C293   1.346       .  A
N289       Cu297   2.078       .  S
N290        C291   1.344       .  A
N290       Cu296   2.065       .  S
C291        C292   1.382       .  A
C291        H294   1.082       .  S
C292        C293   1.383       .  A
C292        C424   1.470       .  S
C293        H295   1.082       .  S
Cu296       N299   2.065       .  S
Cu297       N307   2.078       .  S
Cu298       N300   2.073       .  S
Cu298       N306   2.072       .  S
N299        N300   1.322       .  A
N299        C303   1.344       .  A
N300        C301   1.344       .  A
C301        C302   1.383       .  A
C301        H304   1.082       .  S
C302        C303   1.380       .  A
C302        C456   1.467       .  S
C303        H305   1.082       .  S
N306        N307   1.322       .  A
N306        C310   1.345       .  A
N307        C308   1.346       .  A
C308        C309   1.385       .  A
C308        H311   1.081       .  S
C309        C310   1.382       .  A
C309        C571   1.473   1_554  S
C310        H312   1.082       .  S
N313        N314   1.323       .  A
N313        C317   1.347       .  A
N313       Cu321   2.082       .  S
N314        C315   1.343       .  A
N314       Cu320   2.064       .  S
C315        C316   1.378       .  A
C315        H318   1.082       .  S
C316        C317   1.386       .  A
C316        C440   1.469       .  S
C317        H319   1.082       .  S
Cu320       N323   2.064   1_545  S
Cu321       N331   2.083       .  S
Cu322       N324   2.069       .  S
Cu322       N330   2.069   1_565  S
N323        N324   1.320       .  A
N323        C327   1.342       .  A
N324        C325   1.347       .  A
C325        C326   1.384       .  A
C325        H328   1.082       .  S
C326        C327   1.383       .  A
C326        C411   1.471       .  S
C327        H329   1.082       .  S
N330        N331   1.324       .  A
N330        C334   1.342   1_545  A
N331        C332   1.348       .  A
C332        C333   1.384       .  A
C332        H335   1.082       .  S
C333        C334   1.380   1_545  A
C333        C603   1.470       .  S
C334        H336   1.081       .  S
N337        N338   1.323       .  A
N337        C341   1.347       .  A
N337       Cu345   2.081       .  S
N338        C339   1.343       .  A
N338       Cu344   2.067       .  S
C339        C340   1.380       .  A
C339        H342   1.082       .  S
C340        C341   1.383       .  A
C340        C504   1.468       .  S
C341        H343   1.082       .  S
Cu344       N347   2.067       .  S
Cu345       N355   2.081       .  S
Cu346       N348   2.071       .  S
Cu346       N354   2.072       .  S
N347        N348   1.321       .  A
N347        C351   1.344       .  A
N348        C349   1.345       .  A
C349        C350   1.385       .  A
C349        H352   1.082       .  S
C350        C351   1.381       .  A
C350        C395   1.470       .  S
C351        H353   1.082       .  S
N354        N355   1.323       .  A
N354        C358   1.344       .  A
N355        C356   1.347       .  A
C356        C357   1.384       .  A
C356        H359   1.082       .  S
C357        C358   1.380       .  A
C357        C427   1.470       .  S
C358        H360   1.082       .  S
N361        N362   1.322       .  A
N361        C365   1.348       .  A
N361       Cu369   2.083       .  S
N362        C363   1.343       .  A
N362       Cu368   2.065       .  S
C363        C364   1.379       .  A
C363        H366   1.082       .  S
C364        C365   1.384       .  A
C364        C731   1.467       .  S
C365        H367   1.082       .  S
Cu368       N371   2.065       .  S
Cu369       N379   2.083       .  S
Cu370       N372   2.076       .  S
Cu370       N378   2.077       .  S
N371        N372   1.321       .  A
N371        C375   1.342       .  A
N372        C373   1.347       .  A
C373        C374   1.386       .  A
C373        H376   1.082       .  S
C374        C375   1.380       .  A
C374        C392   1.469       .  S
C375        H377   1.082       .  S
N378        N379   1.324       .  A
N378        C382   1.344       .  A
N379        C380   1.347       .  A
C380        C381   1.384       .  A
C380        H383   1.082       .  S
C381        C382   1.381       .  A
C381        C408   1.471       .  S
C382        H384   1.082       .  S
C385        C390   1.380       .  A
C385        C386   1.401       .  A
C385        O391   1.316       .  A
C386        C387   1.400       .  A
C386        H397   1.083       .  S
C387        C396   1.360       .  A
C387        C388   1.380       .  A
C388        C389   1.404       .  A
C388        O394   1.318       .  A
C389        C390   1.403       .  A
C389        H398   1.083       .  S
C390        C393   1.364       .  A
O391        C392   1.330       .  A
C392        C393   1.392       .  A
C393        H399   1.082       .  S
O394        C395   1.331       .  A
C395        C396   1.390       .  A
C396        H400   1.082       .  S
C401        C406   1.381       .  A
C401        C402   1.400       .  A
C401        O407   1.316       .  A
C402        C403   1.399       .  A
C402        H413   1.082       .  S
C403        C412   1.357       .  A
C403        C404   1.380       .  A
C404        C405   1.406       .  A
C404        O410   1.321       .  A
C405        C406   1.406       .  A
C405        H414   1.082       .  S
C406        C409   1.365       .  A
O407        C408   1.329       .  A
C408        C409   1.393       .  A
C409        H415   1.082       .  S
O410        C411   1.332       .  A
C411        C412   1.389       .  A
C412        H416   1.082       .  S
C417        C422   1.380       .  A
C417        C418   1.404       .  A
C417        O423   1.319       .  A
C418        C419   1.403       .  A
C418        H429   1.082       .  S
C419        C428   1.363       .  A
C419        C420   1.380       .  A
C420        C421   1.402       .  A
C420        O426   1.317       .  A
C421        C422   1.401       .  A
C421        H430   1.082       .  S
C422        C425   1.360       .  A
O423        C424   1.331       .  A
C424        C425   1.391       .  A
C425        H431   1.082       .  S
O426        C427   1.330       .  A
C427        C428   1.391       .  A
C428        H432   1.082       .  S
C433        C438   1.380       .  A
C433        C434   1.405       .  A
C433        O439   1.318       .  A
C434        C435   1.403       .  A
C434        H445   1.082       .  S
C435        C444   1.364       .  A
C435        C436   1.381       .  A
C436        C437   1.401       .  A
C436        O442   1.315       .  A
C437        C438   1.399       .  A
C437        H446   1.082       .  S
C438        C441   1.360       .  A
O439        C440   1.332       .  A
C440        C441   1.389       .  A
C441        H447   1.082       .  S
O442        C443   1.329       .  A
C443        C444   1.392       .  A
C444        H448   1.082       .  S
C449        C454   1.381       .  A
C449        C450   1.403       .  A
C449        O455   1.318       .  A
C450        C451   1.403       .  A
C450        H461   1.083       .  S
C451        C460   1.361       .  A
C451        C452   1.381       .  A
C452        C453   1.400       .  A
C452        O458   1.316       .  A
C453        C454   1.399       .  A
C453        H462   1.083       .  S
C454        C457   1.358       .  A
O455        C456   1.331       .  A
C456        C457   1.389       .  A
C457        H463   1.082       .  S
O458        C459   1.328       .  A
C459        C460   1.391       .  A
C460        H464   1.083       .  S
C465        C470   1.381       .  A
C465        C466   1.401       .  A
C465        O471   1.317       .  A
C466        C467   1.401       .  A
C466        H477   1.083       .  S
C467        C476   1.359       .  A
C467        C468   1.381       .  A
C468        C469   1.403       .  A
C468        O474   1.318       .  A
C469        C470   1.402       .  A
C469        H478   1.082       .  S
C470        C473   1.361       .  A
O471        C472   1.330       .  A
C472        C473   1.391       .  A
C473        H479   1.082       .  S
O474        C475   1.330       .  A
C475        C476   1.391       .  A
C476        H480   1.082       .  S
C481        C486   1.381       .  A
C481        C482   1.400       .  A
C481        O487   1.316       .  A
C482        C483   1.399       .  A
C482        H493   1.082       .  S
C483        C492   1.358       .  A
C483        C484   1.381   1_554  A
C484        C485   1.402   1_556  A
C484        O490   1.317       .  A
C485        C486   1.401       .  A
C485        H494   1.082   1_554  S
C486        C489   1.360       .  A
O487        C488   1.329       .  A
C488        C489   1.390       .  A
C489        H495   1.082       .  S
O490        C491   1.329       .  A
C491        C492   1.389   1_556  A
C492        H496   1.082       .  S
C497        C502   1.381       .  A
C497        C498   1.404       .  A
C497        O503   1.319       .  A
C498        C499   1.403       .  A
C498        H509   1.083       .  S
C499        C508   1.363   1_554  A
C499        C500   1.381       .  A
C500        C501   1.401       .  A
C500        O506   1.316       .  A
C501        C502   1.400       .  A
C501        H510   1.083       .  S
C502        C505   1.359       .  A
O503        C504   1.330       .  A
C504        C505   1.390       .  A
C505        H511   1.083       .  S
O506        C507   1.329   1_554  A
C507        C508   1.390       .  A
C508        H512   1.083       .  S
C513        C518   1.381       .  A
C513        C514   1.402       .  A
C513        O519   1.316       .  A
C514        C515   1.401   1_545  A
C514        H525   1.082       .  S
C515        C524   1.361       .  A
C515        C516   1.380       .  A
C516        C517   1.402   1_565  A
C516        O522   1.317       .  A
C517        C518   1.401       .  A
C517        H526   1.082       .  S
C518        C521   1.361       .  A
O519        C520   1.330       .  A
C520        C521   1.390       .  A
C521        H527   1.082       .  S
O522        C523   1.330       .  A
C523        C524   1.391       .  A
C524        H528   1.082       .  S
C529        C534   1.381       .  A
C529        C530   1.401   1_655  A
C529        O535   1.317       .  A
C530        C531   1.400       .  A
C530        H541   1.081       .  S
C531        C540   1.357       .  A
C531        C532   1.380       .  A
C532        C533   1.402       .  A
C532        O538   1.318       .  A
C533        C534   1.402   1_455  A
C533        H542   1.081       .  S
C534        C537   1.359       .  A
O535        C536   1.329       .  A
C536        C537   1.391       .  A
C537        H543   1.081       .  S
O538        C539   1.330       .  A
C539        C540   1.390       .  A
C540        H544   1.081       .  S
C545        C550   1.380       .  A
C545        C546   1.402       .  A
C545        O551   1.317       .  A
C546        C547   1.401       .  A
C546        H557   1.081       .  S
C547        C556   1.360       .  A
C547        C548   1.380       .  A
C548        C549   1.403       .  A
C548        O554   1.318       .  A
C549        C550   1.402       .  A
C549        H558   1.081       .  S
C550        C553   1.361       .  A
O551        C552   1.330       .  A
C552        C553   1.391       .  A
C553        H559   1.082       .  S
O554        C555   1.330       .  A
C555        C556   1.391       .  A
C556        H560   1.082       .  S
C561        C566   1.380       .  A
C561        C562   1.403       .  A
C561        O567   1.318       .  A
C562        C563   1.402       .  A
C562        H573   1.082       .  S
C563        C572   1.361       .  A
C563        C564   1.380       .  A
C564        C565   1.405       .  A
C564        O570   1.319       .  A
C565        C566   1.404       .  A
C565        H574   1.082       .  S
C566        C569   1.364       .  A
O567        C568   1.331       .  A
C568        C569   1.392       .  A
C569        H575   1.082       .  S
O570        C571   1.331       .  A
C571        C572   1.391       .  A
C572        H576   1.082       .  S
C577        C582   1.381       .  A
C577        C578   1.402       .  A
C577        O583   1.316       .  A
C578        C579   1.400       .  A
C578        H589   1.081       .  S
C579        C588   1.360       .  A
C579        C580   1.381       .  A
C580        C581   1.405       .  A
C580        O586   1.320       .  A
C581        C582   1.404       .  A
C581        H590   1.081       .  S
C582        C585   1.364       .  A
O583        C584   1.329       .  A
C584        C585   1.391       .  A
C585        H591   1.082       .  S
O586        C587   1.331       .  A
C587        C588   1.389       .  A
C588        H592   1.082       .  S
C593        C598   1.381       .  A
C593        C594   1.402   1_545  A
C593        O599   1.317   1_445  A
C594        C595   1.401   1_565  A
C594        H605   1.083       .  S
C595        C604   1.358   1_545  A
C595        C596   1.381       .  A
C596        C597   1.402       .  A
C596        O602   1.319       .  A
C597        C598   1.402       .  A
C597        H606   1.082       .  S
C598        C601   1.360   1_455  A
O599        C600   1.330   1_565  A
C600        C601   1.390       .  A
C601        H607   1.082       .  S
O602        C603   1.330       .  A
C603        C604   1.391   1_545  A
C604        H608   1.082       .  S
C609        C614   1.381       .  A
C609        C610   1.400       .  A
C609        O615   1.317       .  A
C610        C611   1.400       .  A
C610        H621   1.082       .  S
C611        C620   1.357       .  A
C611        C612   1.381       .  A
C612        C613   1.402       .  A
C612        O618   1.318       .  A
C613        C614   1.401       .  A
C613        H622   1.082       .  S
C614        C617   1.359       .  A
O615        C616   1.328       .  A
C616        C617   1.390       .  A
C617        H623   1.082       .  S
O618        C619   1.330       .  A
C619        C620   1.389       .  A
C620        H624   1.082       .  S
C625        C630   1.380       .  A
C625        C626   1.405       .  A
C625        O631   1.320       .  A
C626        C627   1.405       .  A
C626        H637   1.082       .  S
C627        C636   1.364       .  A
C627        C628   1.381       .  A
C628        C629   1.402       .  A
C628        O634   1.317       .  A
C629        C630   1.401       .  A
C629        H638   1.082       .  S
C630        C633   1.360       .  A
O631        C632   1.332       .  A
C632        C633   1.390       .  A
C633        H639   1.082       .  S
O634        C635   1.330       .  A
C635        C636   1.392       .  A
C636        H640   1.082       .  S
C641        C646   1.380       .  A
C641        C642   1.402       .  A
C641        O647   1.317       .  A
C642        C643   1.401       .  A
C642        H653   1.081       .  S
C643        C652   1.361       .  A
C643        C644   1.380       .  A
C644        C645   1.402       .  A
C644        O650   1.316       .  A
C645        C646   1.401       .  A
C645        H654   1.081       .  S
C646        C649   1.361       .  A
O647        C648   1.330       .  A
C648        C649   1.390       .  A
C649        H655   1.082       .  S
O650        C651   1.330       .  A
C651        C652   1.390       .  A
C652        H656   1.081       .  S
C657        C662   1.381       .  A
C657        C658   1.400       .  A
C657        O663   1.317       .  A
C658        C659   1.400       .  A
C658        H669   1.082       .  S
C659        C668   1.358       .  A
C659        C660   1.381       .  A
C660        C661   1.404       .  A
C660        O666   1.320       .  A
C661        C662   1.404       .  A
C661        H670   1.082       .  S
C662        C665   1.362       .  A
O663        C664   1.329       .  A
C664        C665   1.392       .  A
C665        H671   1.082       .  S
O666        C667   1.331       .  A
C667        C668   1.389       .  A
C668        H672   1.082       .  S
C673        C678   1.380       .  A
C673        C674   1.402       .  A
C673        O679   1.316       .  A
C674        C675   1.401       .  A
C674        H685   1.082       .  S
C675        C684   1.360       .  A
C675        C676   1.380       .  A
C676        C677   1.403       .  A
C676        O682   1.318       .  A
C677        C678   1.402       .  A
C677        H686   1.082       .  S
C678        C681   1.363       .  A
O679        C680   1.330       .  A
C680        C681   1.391       .  A
C681        H687   1.082       .  S
O682        C683   1.330       .  A
C683        C684   1.391       .  A
C684        H688   1.082       .  S
C689        C694   1.380       .  A
C689        C690   1.404       .  A
C689        O695   1.319       .  A
C690        C691   1.403       .  A
C690        H701   1.081       .  S
C691        C700   1.364       .  A
C691        C692   1.380       .  A
C692        C693   1.404       .  A
C692        O698   1.318       .  A
C693        C694   1.402       .  A
C693        H702   1.082       .  S
C694        C697   1.362       .  A
O695        C696   1.331       .  A
C696        C697   1.391       .  A
C697        H703   1.082       .  S
O698        C699   1.330       .  A
C699        C700   1.391       .  A
C700        H704   1.082       .  S
C705        C710   1.380       .  A
C705        C706   1.405       .  A
C705        O711   1.320       .  A
C706        C707   1.404       .  A
C706        H717   1.081       .  S
C707        C716   1.363       .  A
C707        C708   1.380       .  A
C708        C709   1.403       .  A
C708        O714   1.319       .  A
C709        C710   1.403       .  A
C709        H718   1.081       .  S
C710        C713   1.361       .  A
O711        C712   1.332       .  A
C712        C713   1.391       .  A
C713        H719   1.082       .  S
O714        C715   1.331       .  A
C715        C716   1.392       .  A
C716        H720   1.082       .  S
C721        C726   1.381       .  A
C721        C722   1.405       .  A
C721        O727   1.320       .  A
C722        C723   1.404       .  A
C722        H733   1.083       .  S
C723        C732   1.364       .  A
C723        C724   1.381       .  A
C724        C725   1.401       .  A
C724        O730   1.317       .  A
C725        C726   1.400       .  A
C725        H734   1.083       .  S
C726        C729   1.360       .  A
O727        C728   1.331       .  A
C728        C729   1.389       .  A
C729        H735   1.083       .  S
O730        C731   1.329       .  A
C731        C732   1.391       .  A
C732        H736   1.083       .  S
C737        C742   1.381       .  A
C737        C738   1.400       .  A
C737        O743   1.317       .  A
C738        C739   1.400       .  A
C738        H749   1.082       .  S
C739        C748   1.357       .  A
C739        C740   1.381       .  A
C740        C741   1.402       .  A
C740        O746   1.318       .  A
C741        C742   1.402       .  A
C741        H750   1.082       .  S
C742        C745   1.360       .  A
O743        C744   1.329       .  A
C744        C745   1.392       .  A
C745        H751   1.082       .  S
O746        C747   1.330       .  A
C747        C748   1.389       .  A
C748        H752   1.082       .  S
C753        C758   1.380       .  A
C753        C754   1.402       .  A
C753        O759   1.318       .  A
C754        C755   1.402       .  A
C754        H765   1.082       .  S
C755        C764   1.361       .  A
C755        C756   1.380       .  A
C756        C757   1.406       .  A
C756        O762   1.321       .  A
C757        C758   1.405       .  A
C757        H766   1.082       .  S
C758        C761   1.364       .  A
O759        C760   1.330       .  A
C760        C761   1.393       .  A
C761        H767   1.082       .  S
O762        C763   1.332       .  A
C763        C764   1.391       .  A
C764        H768   1.082       .  S
