geometry optimzed in LAMMPS
_audit_creation_date              2020-12-01 
_audit_creation_method            'lammps2cif' 
_symmetry_space_group_name_H-M    'P1' 
_symmetry_Int_Tables_number       1 
_symmetry_cell_setting            triclinic 
loop_ 
_symmetry_equiv_pos_as_xyz 
  x,y,z 
_cell_length_a                    46.05855189 
_cell_length_b                    45.96385379333076 
_cell_length_c                    80.30604508646645 
_cell_angle_alpha                 93.08378803717042 
_cell_angle_beta                  86.80619652706174 
_cell_angle_gamma                 126.30063462822079 
loop_ 
_atom_site_label 
_atom_site_type_symbol 
_atom_site_fract_x 
_atom_site_fract_y 
_atom_site_fract_z 
_atom_site_charge 
C1          C  0.34933912  0.37279788  0.98906252     0.03600
C2          C  0.34197376  0.34614031  0.99997065    -0.12500
C3          C  0.36852388  0.35252384  0.01055680     0.01100
C4          C  0.40224871  0.38634908  0.01057320    -0.11000
C5          C  0.41086056  0.41331892  0.99941333     0.03600
C6          C  0.38392116  0.40575409  0.98856014    -0.10400
H7          H  0.31546861  0.32054911  0.00032162     0.09200
H8          H  0.42155414  0.39117996  0.01944468     0.06800
H9          H  0.38923878  0.42548094  0.97978239     0.06600
C10         C  0.75509380  0.64747184  0.68507535     0.03600
C11         C  0.73337640  0.62953730  0.67120852    -0.12500
C12         C  0.74045265  0.61017953  0.65985194     0.01100
C13         C  0.77009933  0.60974924  0.66198866    -0.11000
C14         C  0.79118884  0.62569889  0.67617933     0.03600
C15         C  0.78335886  0.64472923  0.68772518    -0.10400
H16         H  0.71023260  0.62961791  0.66956911     0.09200
H17         H  0.77564345  0.59570169  0.65262116     0.06800
H18         H  0.79820094  0.65648067  0.69907422     0.06600
C19         C  0.70160535  0.00218789  0.67851362     0.03600
C20         C  0.67503579  0.99465878  0.66757265    -0.12500
C21         C  0.68122351  0.02155099  0.65714360     0.01100
C22         C  0.71478947  0.05572138  0.65732216    -0.11000
C23         C  0.74152825  0.06434155  0.66856538     0.03600
C24         C  0.73383111  0.03723555  0.67936444    -0.10400
H25         H  0.64995942  0.96778705  0.66687840     0.09200
H26         H  0.71955104  0.07538439  0.64863356     0.06800
H27         H  0.75278051  0.04290127  0.68864922     0.06600
N28         N  0.69690235  0.75060687  0.74418129    -0.26800
N29         N  0.70863579  0.77069283  0.73080143    -0.34600
C30         C  0.72146746  0.75817992  0.71938385     0.01600
C31         C  0.71723500  0.72850973  0.72573607     0.07600
C32         C  0.70145579  0.72430314  0.74147101    -0.05500
H33         H  0.73246717  0.76945573  0.70720196     0.08300
H34         H  0.69431734  0.70400987  0.75036113     0.09500
Cu35       Cu  0.70522251  0.81318298  0.72805233     0.44200
Cu36       Cu  0.67646132  0.76128705  0.76557352     0.42000
Cu37       Cu  0.66643413  0.83428350  0.76214310     0.43900
N38         N  0.69613932  0.85215483  0.72689642    -0.34200
N39         N  0.68127628  0.85966316  0.73929204    -0.28400
C40         C  0.67816778  0.88530344  0.73444153    -0.04500
C41         C  0.69210530  0.89464476  0.71825570     0.07700
C42         C  0.70305405  0.87285180  0.71389185     0.01500
H43         H  0.66696291  0.89661262  0.74218704     0.09200
H44         H  0.71454852  0.87151401  0.70201883     0.08200
N45         N  0.65450269  0.80538433  0.78371210    -0.35600
N46         N  0.65832155  0.77925345  0.78504883    -0.27800
C47         C  0.64746498  0.76603128  0.80052164    -0.03000
C48         C  0.63623492  0.78467594  0.80939736     0.05600
C49         C  0.64100358  0.80928495  0.79824953     0.03700
H50         H  0.64647259  0.74349359  0.80472234     0.08800
H51         H  0.63467707  0.82841502  0.80046449     0.07600
N52         N  0.50635572  0.78623312  0.94143642    -0.26800
N53         N  0.49669073  0.76779848  0.95528514    -0.34600
C54         C  0.48977753  0.78445641  0.96745279     0.01600
C55         C  0.49575904  0.81509021  0.96108248     0.07600
C56         C  0.50593106  0.81507101  0.94449236    -0.05500
H57         H  0.48249577  0.77578669  0.98022442     0.08300
H58         H  0.51312622  0.83488228  0.93532168     0.09500
Cu59       Cu  0.49664325  0.72274805  0.95770968     0.44200
Cu60       Cu  0.52272182  0.77367254  0.91914646     0.42000
Cu61       Cu  0.53606143  0.70478622  0.92229157     0.43900
N62         N  0.50461029  0.68245244  0.95718322    -0.34200
N63         N  0.52029671  0.67711523  0.94436190    -0.28400
C64         C  0.52238681  0.65011160  0.94770656    -0.04500
C65         C  0.50704737  0.63720787  0.96343389     0.07700
C66         C  0.49587861  0.65850750  0.96898788     0.01500
H67         H  0.53407584  0.64049701  0.93911744     0.09200
H68         H  0.48156361  0.65641129  0.98050098     0.08200
N69         N  0.54718374  0.73266478  0.90063654    -0.35600
N70         N  0.54200516  0.75778343  0.89926332    -0.27800
C71         C  0.55273182  0.77116757  0.88380629    -0.03000
C72         C  0.56519463  0.75349854  0.87499639     0.05600
C73         C  0.56127703  0.72936803  0.88617616     0.03700
H74         H  0.55283910  0.79317410  0.87958869     0.08800
H75         H  0.56858292  0.71099248  0.88405144     0.07600
C76         C  0.92455819  0.50635434  0.99496665     0.03600
C77         C  0.94974591  0.53632548  0.98534783    -0.12500
C78         C  0.97849273  0.53866510  0.97693447     0.01100
C79         C  0.98252325  0.51098320  0.97834940    -0.11000
C80         C  0.95735164  0.48018474  0.98762836     0.03600
C81         C  0.92790361  0.47796597  0.99565548    -0.10400
H82         H  0.94726734  0.55824761  0.98459337     0.09200
H83         H  0.00625785  0.51446217  0.97273517     0.06800
H84         H  0.90792067  0.45472349  0.00286613     0.06600
C85         C  0.51180104  0.48614584  0.00567810     0.03600
C86         C  0.47777693  0.45265336  0.00528107    -0.12500
C87         C  0.44754834  0.44911777  0.99924572     0.01100
C88         C  0.45281747  0.48031506  0.99324154    -0.11000
C89         C  0.48708681  0.51349648  0.99288973     0.03600
C90         C  0.51645353  0.51639631  0.99920431    -0.10400
H91         H  0.47550192  0.42954479  0.00966843     0.09200
H92         H  0.43051452  0.47947625  0.98893019     0.06800
H93         H  0.54271144  0.54228451  0.99934352     0.06600
C94         C  0.63026559  0.73076961  0.31431769     0.03600
C95         C  0.62445177  0.75745481  0.31338579    -0.12500
C96         C  0.60141189  0.75929108  0.32531921     0.01100
C97         C  0.58449772  0.73328305  0.33790132    -0.11000
C98         C  0.58897660  0.70571541  0.33816954     0.03600
C99         C  0.61199988  0.70477025  0.32652752    -0.10400
H100        H  0.63719017  0.77526164  0.30336329     0.09200
H101        H  0.56743274  0.73360012  0.34750833     0.06800
H102        H  0.61553989  0.68346310  0.32692503     0.06600
N103        N  0.74691351  0.68512112  0.25836912    -0.26800
N104        N  0.76498526  0.69512944  0.27226758    -0.34600
C105        C  0.75115454  0.70705122  0.28346920     0.01600
C106        C  0.72274145  0.70418247  0.27636481     0.07600
C107        C  0.72104045  0.69030789  0.26036751    -0.05500
H108        H  0.76059843  0.71639053  0.29602014     0.08300
H109        H  0.70259675  0.68461080  0.25079545     0.09500
Cu110      Cu  0.80696910  0.69093321  0.27533454     0.44200
Cu111      Cu  0.75858067  0.66467284  0.23746484     0.42000
Cu112      Cu  0.83252879  0.65642504  0.24014473     0.43900
N113        N  0.84714030  0.68324837  0.27603721    -0.34200
N114        N  0.85654777  0.67059902  0.26336259    -0.28400
C115        C  0.88298530  0.66870338  0.26816049    -0.04500
C116        C  0.89084222  0.68095147  0.28467654     0.07700
C117        C  0.86731518  0.68977095  0.28914905     0.01500
H118        H  0.89494857  0.65847944  0.26021655     0.09200
H119        H  0.86519919  0.70059527  0.30107463     0.08200
N120        N  0.80281372  0.64354964  0.21874838    -0.35600
N121        N  0.77571461  0.64601704  0.21800296    -0.27800
C122        C  0.76196919  0.63534961  0.20268900    -0.03000
C123        C  0.78114921  0.62553270  0.19324970     0.05600
C124        C  0.80709236  0.63144826  0.20381673     0.03700
H125        H  0.74009039  0.63555791  0.19863729     0.08800
H126        H  0.82745422  0.62704809  0.20089559     0.07600
N127        N  0.79349322  0.52645623  0.05506916    -0.26800
N128        N  0.77157908  0.51183260  0.04235486    -0.34600
C129        C  0.78673836  0.50357158  0.02996848     0.01600
C130        C  0.81999023  0.51391827  0.03502053     0.07600
C131        C  0.82318796  0.52811770  0.05104774    -0.05500
H132        H  0.77496648  0.49199509  0.01794721     0.08300
H133        H  0.84551401  0.53899827  0.05922213     0.09500
Cu134      Cu  0.72314804  0.50608230  0.04199554     0.44200
Cu135      Cu  0.78307773  0.54477627  0.07726908     0.42000
Cu136      Cu  0.70175641  0.53953723  0.07904053     0.43900
N137        N  0.67803170  0.50645597  0.04450581    -0.34200
N138        N  0.67025157  0.51844750  0.05808926    -0.28400
C139        C  0.64035544  0.51626570  0.05563422    -0.04500
C140        C  0.62854869  0.50220288  0.03970873     0.07700
C141        C  0.65329628  0.49650222  0.03301118     0.01500
H142        H  0.62905574  0.52571827  0.06458132     0.09200
H143        H  0.65357042  0.48627623  0.02059479     0.08200
N144        N  0.73730743  0.56012231  0.09848594    -0.35600
N145        N  0.76706529  0.56194755  0.09795214    -0.27800
C146        C  0.78335348  0.57537663  0.11267798    -0.03000
C147        C  0.76298748  0.58263245  0.12299352     0.05600
C148        C  0.73390999  0.57239354  0.11350451     0.03700
H149        H  0.80753112  0.57834163  0.11579452     0.08800
H150        H  0.71155840  0.57332280  0.11729518     0.07600
C151        C  0.01902245  0.68638229  0.35123946     0.03600
C152        C  0.99240279  0.67833863  0.34023232    -0.12500
C153        C  0.99887907  0.70417130  0.32905877     0.01100
C154        C  0.03281407  0.73791137  0.32856765    -0.11000
C155        C  0.05981571  0.74709247  0.33980573     0.03600
C156        C  0.05192789  0.72093393  0.35130171    -0.10400
H157        H  0.96684538  0.65177572  0.34018049     0.09200
H158        H  0.03774434  0.75662255  0.31927028     0.06800
H159        H  0.07154040  0.72672914  0.36021030     0.06600
C160        C  0.49431152  0.92357181  0.00070362     0.03600
C161        C  0.46693820  0.92854538  0.00169971    -0.12500
C162        C  0.47208320  0.95899189  0.01032641     0.01100
C163        C  0.50469510  0.98318862  0.01849817    -0.11000
C164        C  0.53143797  0.97752755  0.01814742     0.03600
C165        C  0.52620259  0.94789123  0.00919839    -0.10400
H166        H  0.44223546  0.90901599  0.99534827     0.09200
H167        H  0.51028619  0.00741471  0.02470886     0.06800
H168        H  0.54711817  0.94379182  0.00875376     0.06600
N169        N  0.59576190  0.48114052  0.59229527    -0.26800
N170        N  0.58061757  0.45943667  0.60509088    -0.34600
C171        C  0.60238397  0.47451593  0.61807302     0.01600
C172        C  0.63314442  0.50741365  0.61335048     0.07600
C173        C  0.62795918  0.51100748  0.59692544    -0.05500
H174        H  0.59529674  0.46298075  0.63031104     0.08300
H175        H  0.64590184  0.53383875  0.58905111     0.09500
Cu176      Cu  0.52983665  0.41200759  0.60570732     0.44200
Cu177      Cu  0.56986194  0.46875163  0.56978286     0.42000
Cu178      Cu  0.47606066  0.38487417  0.57091198     0.43900
N179        N  0.47714946  0.36766049  0.60587102    -0.34200
N180        N  0.45647352  0.35710601  0.59290297    -0.28400
C181        C  0.42357965  0.32723402  0.59681424    -0.04500
C182        C  0.42377075  0.31886407  0.61314171     0.07700
C183        C  0.45828415  0.34511918  0.61841906     0.01500
H184        H  0.40169844  0.31228342  0.58823721     0.09200
H185        H  0.46905397  0.34768462  0.63048204     0.08200
N186        N  0.50156670  0.41763486  0.55057734    -0.35600
N187        N  0.53491471  0.44755135  0.54991283    -0.27800
C188        C  0.54149749  0.46154808  0.53467539    -0.03000
C189        C  0.51071284  0.43945818  0.52537579     0.05600
C190        C  0.48619036  0.41191513  0.53592042     0.03700
H191        H  0.56695177  0.48582189  0.53073127     0.08800
H192        H  0.45868539  0.38955091  0.53329659     0.07600
N193        N  0.48501705  0.54638813  0.40218122    -0.26800
N194        N  0.45696229  0.53730573  0.39367243    -0.34600
C195        C  0.46750858  0.56218263  0.38223050     0.01600
C196        C  0.50411984  0.58851913  0.38357193     0.07600
C197        C  0.51443732  0.57765719  0.39639247    -0.05500
H198        H  0.44985764  0.56072007  0.37333464     0.08300
H199        H  0.54141805  0.59052404  0.40069853     0.09500
Cu200      Cu  0.40628227  0.49029122  0.39700803     0.44200
Cu201      Cu  0.48053222  0.51354530  0.42035780     0.42000
Cu202      Cu  0.39000036  0.42716647  0.42717317     0.43900
N203        N  0.35767191  0.44084678  0.40002261    -0.34200
N204        N  0.35095501  0.41697127  0.41095462    -0.28400
C205        C  0.31716798  0.38691084  0.40882615    -0.04500
C206        C  0.30202616  0.39248190  0.39598956     0.07700
C207        C  0.32880279  0.42690895  0.39067372     0.01500
H208        H  0.30483204  0.36261133  0.41586206     0.09200
H209        H  0.32825530  0.44042614  0.38022240     0.08200
N210        N  0.43537824  0.44595171  0.44094920    -0.35600
N211        N  0.46762043  0.47652316  0.43828658    -0.27800
C212        C  0.49007368  0.48100930  0.44982014    -0.03000
C213        C  0.47133297  0.45197633  0.46034015     0.05600
C214        C  0.43662749  0.43036020  0.45433335     0.03700
H215        H  0.51782319  0.50440176  0.45074282     0.08800
H216        H  0.41339061  0.40604952  0.45975916     0.07600
C217        C  0.84096747  0.13998332  0.67678668     0.03600
C218        C  0.80784052  0.10575246  0.67548734    -0.12500
C219        C  0.77733675  0.10108994  0.66906672     0.01100
C220        C  0.78164210  0.13183548  0.66310444    -0.11000
C221        C  0.81526155  0.16592515  0.66330035     0.03600
C222        C  0.84463748  0.16983028  0.67035848    -0.10400
H223        H  0.80654864  0.08279946  0.67926789     0.09200
H224        H  0.75903138  0.12983288  0.65832066     0.06800
H225        H  0.87053613  0.19603988  0.67064867     0.06600
N226        N  0.12316993  0.17627953  0.72542390    -0.26800
N227        N  0.10479730  0.16730763  0.71166979    -0.34600
C228        C  0.12154699  0.16117797  0.69922388     0.01600
C229        C  0.15217160  0.16680283  0.70533612     0.07600
C230        C  0.15198663  0.17603491  0.72208002    -0.05500
H231        H  0.11245431  0.15387446  0.68653745     0.08300
H232        H  0.17116742  0.18195149  0.73128625     0.09500
Cu233      Cu  0.05811937  0.16458751  0.71036226     0.44200
Cu234      Cu  0.10926146  0.18989053  0.74809745     0.42000
Cu235      Cu  0.02763774  0.18428383  0.74916289     0.43900
N236        N  0.01230046  0.16378941  0.71259614    -0.34200
N237        N  0.00077749  0.16995020  0.72686196    -0.28400
C238        C  0.97058385  0.16710111  0.72423406    -0.04500
C239        C  0.96284147  0.15924828  0.70747089     0.07700
C240        C  0.98985818  0.15722933  0.70048316     0.01500
H241        H  0.95574830  0.17122991  0.73378484     0.09200
H242        H  0.99278502  0.15098841  0.68759854     0.08200
N243        N  0.06158405  0.20295420  0.76925146    -0.35600
N244        N  0.09143815  0.20494661  0.76889058    -0.27800
C245        C  0.10769662  0.21886435  0.78358736    -0.03000
C246        C  0.08736167  0.22642437  0.79367723     0.05600
C247        C  0.05813723  0.21566129  0.78415479     0.03700
H248        H  0.13283032  0.22366876  0.78660910     0.08800
H249        H  0.03571721  0.21654886  0.78779933     0.07600
N250        N  0.09137973  0.35758115  0.92457601    -0.26800
N251        N  0.11233628  0.37139598  0.93761941    -0.34600
C252        C  0.10174232  0.38763224  0.94800277     0.01600
C253        C  0.07265198  0.38390137  0.94121723     0.07600
C254        C  0.06663847  0.36437574  0.92641616    -0.05500
H255        H  0.11351388  0.40001736  0.95993406     0.08300
H256        H  0.04568045  0.35556455  0.91767643     0.09500
Cu257      Cu  0.15313462  0.36577557  0.94121128     0.44200
Cu258      Cu  0.09784283  0.33021049  0.90496363     0.42000
Cu259      Cu  0.17193876  0.32259397  0.90768117     0.43900
N260        N  0.19176229  0.35615636  0.94240611    -0.34200
N261        N  0.19904823  0.34085260  0.93012371    -0.28400
C262        C  0.22556847  0.33903060  0.93478958    -0.04500
C263        C  0.23523547  0.35351267  0.95085765     0.07700
C264        C  0.21326167  0.36425451  0.95520902     0.01500
H265        H  0.23678590  0.32766991  0.92709553     0.09200
H266        H  0.21332333  0.37769698  0.96669157     0.08200
N267        N  0.13904359  0.30473053  0.88710611    -0.35600
N268        N  0.11186207  0.30701774  0.88631715    -0.27800
C269        C  0.09627675  0.29338453  0.87148694    -0.03000
C270        C  0.11430763  0.28175899  0.86236366     0.05600
C271        C  0.14148058  0.28969006  0.87272619     0.03700
H272        H  0.07353468  0.29230440  0.86760684     0.08800
H273        H  0.16229510  0.28593376  0.86992363     0.07600
C274        C  0.25703887  0.15850126  0.66604991     0.03600
C275        C  0.25773682  0.12827254  0.66463310    -0.12500
C276        C  0.28719280  0.13051813  0.65652440     0.01100
C277        C  0.31456929  0.16332214  0.64909505    -0.11000
C278        C  0.31334317  0.19309007  0.64987745     0.03600
C279        C  0.28475940  0.19063987  0.65848437    -0.10400
H280        H  0.23557807  0.10360314  0.67027179     0.09200
H281        H  0.33756988  0.16651495  0.64281054     0.06800
H282        H  0.28431002  0.21399011  0.65949370     0.06600
N283        N  0.16251231  0.11808675  0.27506407    -0.26800
N284        N  0.14870897  0.09665741  0.28798885    -0.34600
C285        C  0.13859254  0.11087677  0.29995660     0.01600
C286        C  0.14647836  0.14290179  0.29433043     0.07600
C287        C  0.16177323  0.14661324  0.27851126    -0.05500
H288        H  0.12829298  0.09979428  0.31221629     0.08300
H289        H  0.17260220  0.16898173  0.27029325     0.09500
Cu290      Cu  0.14827261  0.05139352  0.28948934     0.44200
Cu291      Cu  0.18432480  0.10902009  0.25386859     0.42000
Cu292      Cu  0.18791238  0.03233494  0.25405031     0.43900
N293        N  0.15450531  0.01008956  0.28877079    -0.34200
N294        N  0.16880687  0.00305730  0.27589646    -0.28400
C295        C  0.16963558  0.97534681  0.27960281    -0.04500
C296        C  0.15553139  0.96454238  0.29568473     0.07700
C297        C  0.14599198  0.98712952  0.30099899     0.01500
H298        H  0.17952953  0.96383678  0.27107974     0.09200
H299        H  0.13430561  0.98736000  0.31302486     0.08200
N300        N  0.20709828  0.06738866  0.23423214    -0.35600
N301        N  0.20570522  0.09529825  0.23423456    -0.27800
C302        C  0.21988764  0.11233947  0.21970819    -0.03000
C303        C  0.23108920  0.09457463  0.21004600     0.05600
C304        C  0.22227864  0.06600756  0.21967220     0.03700
H305        H  0.22187428  0.13599795  0.21643007     0.08800
H306        H  0.22574384  0.04514815  0.21623076     0.07600
N307        N  0.35985977  0.10207284  0.07793828    -0.26800
N308        N  0.37093168  0.12150281  0.06438702    -0.34600
C309        C  0.38505343  0.10961847  0.05336024     0.01600
C310        C  0.38260041  0.08111470  0.06021027     0.07600
C311        C  0.36659653  0.07729170  0.07588857    -0.05500
H312        H  0.39574472  0.12053650  0.04109860     0.08300
H313        H  0.36055651  0.05821563  0.08523753     0.09500
Cu314      Cu  0.36565769  0.16293059  0.06149258     0.44200
Cu315      Cu  0.33585768  0.11029213  0.09847233     0.42000
Cu316      Cu  0.32656726  0.18357809  0.09648542     0.43900
N317        N  0.35734765  0.20280902  0.06125273    -0.34200
N318        N  0.34355345  0.21075632  0.07401250    -0.28400
C319        C  0.34141888  0.23734237  0.06964931    -0.04500
C320        C  0.35446073  0.24661330  0.05332987     0.07700
C321        C  0.36414961  0.22395820  0.04845458     0.01500
H322        H  0.33012190  0.24824329  0.07762497     0.09200
H323        H  0.37531615  0.22285806  0.03642541     0.08200
N324        N  0.30981920  0.15037283  0.11694409    -0.35600
N325        N  0.31297919  0.12366626  0.11749851    -0.27800
C326        C  0.29968370  0.10752522  0.13226422    -0.03000
C327        C  0.28730393  0.12464109  0.14156047     0.05600
C328        C  0.29448060  0.15191335  0.13142153     0.03700
H329        H  0.29913765  0.08490723  0.13594783     0.08800
H330        H  0.28978224  0.17204238  0.13442926     0.07600
C331        C  0.13473825  0.84760679  0.33256434     0.03600
C332        C  0.16418405  0.85141006  0.33952416    -0.12500
C333        C  0.16044353  0.82169988  0.34614619     0.01100
C334        C  0.12670602  0.78785186  0.34574045    -0.11000
C335        C  0.09613916  0.78336702  0.33950199     0.03600
C336        C  0.10081559  0.81382301  0.33292132    -0.10400
H337        H  0.19004146  0.87765791  0.33983235     0.09200
H338        H  0.12497214  0.76501251  0.35008712     0.06800
H339        H  0.07834501  0.81154722  0.32781503     0.06600
C340        C  0.41782876  0.99673266  0.02137710     0.03600
C341        C  0.39475382  0.98294973  0.00794086    -0.12500
C342        C  0.39586680  0.96085709  0.99569614     0.01100
C343        C  0.42156541  0.95398029  0.99645718    -0.11000
C344        C  0.44488594  0.96697942  0.00992192     0.03600
C345        C  0.44241033  0.98829056  0.02256548    -0.10400
H346        H  0.37553193  0.98913780  0.00713834     0.09200
H347        H  0.42283917  0.93807735  0.98643856     0.06800
H348        H  0.45908808  0.99817983  0.03338042     0.06600
C349        C  0.14601640  0.24963924  0.33570417     0.03600
C350        C  0.11909266  0.25501914  0.33528969    -0.12500
C351        C  0.11758767  0.27809901  0.34712437     0.01100
C352        C  0.14387591  0.29520781  0.35945819    -0.11000
C353        C  0.17241158  0.29197339  0.35928434     0.03600
C354        C  0.17306155  0.26885470  0.34741855    -0.10400
H355        H  0.10013199  0.24156251  0.32535875     0.09200
H356        H  0.14295262  0.31177895  0.36921747     0.06800
H357        H  0.19484875  0.26609162  0.34708539     0.06600
N358        N  0.70498667  0.11075224  0.07144539    -0.26800
N359        N  0.71593877  0.13050838  0.05804377    -0.34600
C360        C  0.69042757  0.11307198  0.04657506     0.01600
C361        C  0.66178356  0.08082937  0.05315937     0.07600
C362        C  0.67190449  0.08012924  0.06896114    -0.05500
H363        H  0.69243696  0.12331843  0.03442172     0.08300
H364        H  0.65682245  0.05873833  0.07784255     0.09500
Cu365      Cu  0.76445742  0.18048412  0.05640475     0.44200
Cu366      Cu  0.73694305  0.12702506  0.09188472     0.42000
Cu367      Cu  0.82571578  0.21520962  0.09071470     0.43900
N368        N  0.81218671  0.23126081  0.05745490    -0.34200
N369        N  0.83511922  0.24427578  0.06970804    -0.28400
C370        C  0.86373585  0.27795010  0.06599292    -0.04500
C371        C  0.85797106  0.28643482  0.05081916     0.07700
C372        C  0.82521538  0.25613381  0.04574865     0.01500
H373        H  0.88695488  0.29488753  0.07371566     0.09200
H374        H  0.81221104  0.25190061  0.03414471     0.08200
N375        N  0.80652117  0.17926777  0.10998524    -0.35600
N376        N  0.77442517  0.14775654  0.11029293    -0.27800
C377        C  0.77034635  0.13101000  0.12432262    -0.03000
C378        C  0.80122141  0.15292443  0.13341572     0.05600
C379        C  0.82372263  0.18331374  0.12388745     0.03700
H380        H  0.74647059  0.10469293  0.12764065     0.08800
H381        H  0.85085820  0.20633829  0.12659868     0.07600
N382        N  0.87845325  0.15359899  0.27017902    -0.26800
N383        N  0.85846010  0.13442613  0.28315852    -0.34600
C384        C  0.87731549  0.14970688  0.29708495     0.01600
C385        C  0.91097738  0.18012656  0.29270115     0.07600
C386        C  0.91085622  0.18170067  0.27551079    -0.05500
H387        H  0.86785689  0.13826112  0.30932697     0.08300
H388        H  0.93293845  0.20130991  0.26744328     0.09500
Cu389      Cu  0.80856045  0.08599708  0.28113463     0.44200
Cu390      Cu  0.86045964  0.13869384  0.24596469     0.42000
Cu391      Cu  0.77115886  0.05188504  0.24068314     0.43900
N392        N  0.76309183  0.03475016  0.27676828    -0.34200
N393        N  0.74866305  0.02171620  0.26201524    -0.28400
C394        C  0.72026983  0.98686155  0.26353215    -0.04500
C395        C  0.71743393  0.97770394  0.27999505     0.07700
C396        C  0.74478515  0.00875872  0.28801055     0.01500
H397        H  0.70380671  0.96925129  0.25334805     0.09200
H398        H  0.75123585  0.01221036  0.30104862     0.08200
N399        N  0.80194288  0.08757713  0.22172196    -0.35600
N400        N  0.83418710  0.11849629  0.22353372    -0.27800
C401        C  0.84552834  0.13538363  0.20889643    -0.03000
C402        C  0.81927579  0.11409401  0.19725780     0.05600
C403        C  0.79196170  0.08408536  0.20592191     0.03700
H404        H  0.87059724  0.16180865  0.20704483     0.08800
H405        H  0.76584287  0.06214540  0.20140434     0.07600
C406        C  0.98479447  0.41631384  0.97927187     0.03600
C407        C  0.96870672  0.39443288  0.99318278    -0.12500
C408        C  0.95041742  0.40107198  0.00545120     0.01100
C409        C  0.94868973  0.43018254  0.00386511    -0.11000
C410        C  0.96265641  0.45134192  0.98956224     0.03600
C411        C  0.98133669  0.44437652  0.97731878    -0.10400
H412        H  0.97004153  0.37186815  0.99429735     0.09200
H413        H  0.93572429  0.43565368  0.01388173     0.06800
H414        H  0.99267205  0.46001609  0.96612604     0.06600
C415        C  0.56194412  0.81324511  0.33346304     0.03600
C416        C  0.56593256  0.78514304  0.33349935    -0.12500
C417        C  0.59515073  0.78804194  0.32468981     0.01100
C418        C  0.61916863  0.81943587  0.31541586    -0.11000
C419        C  0.61394340  0.84649630  0.31463882     0.03600
C420        C  0.58574833  0.84351850  0.32386422    -0.10400
H421        H  0.54617280  0.76160260  0.34051500     0.09200
H422        H  0.64195443  0.82375011  0.30906442     0.06800
H423        H  0.58279023  0.86526913  0.32393474     0.06600
N424        N  0.42806289  0.83015843  0.39219744    -0.26800
N425        N  0.41104888  0.82521469  0.37842783    -0.34600
C426        C  0.42609463  0.81766907  0.36565973     0.01600
C427        C  0.45386032  0.81768422  0.37168709     0.07600
C428        C  0.45418963  0.82586712  0.38858369    -0.05500
H429        H  0.41826964  0.81395042  0.35283963     0.08300
H430        H  0.47260380  0.82922605  0.39761017     0.09500
Cu431      Cu  0.36903456  0.83055578  0.37777035     0.44200
Cu432      Cu  0.41755612  0.84567060  0.41514323     0.42000
Cu433      Cu  0.34791278  0.85899520  0.41715237     0.43900
N434        N  0.32678296  0.83559789  0.38116283    -0.34200
N435        N  0.31859643  0.84486638  0.39557789    -0.28400
C436        C  0.28942858  0.84438895  0.39373555    -0.04500
C437        C  0.27870414  0.83453414  0.37736552     0.07700
C438        C  0.30322135  0.82944712  0.36974531     0.01500
H439        H  0.27739417  0.85146061  0.40353800     0.09200
H440        H  0.30359974  0.82138530  0.35687332     0.08200
N441        N  0.38203802  0.87256735  0.43675521    -0.35600
N442        N  0.40699697  0.86680509  0.43609445    -0.27800
C443        C  0.42468567  0.87853159  0.45050057    -0.03000
C444        C  0.41059536  0.89288633  0.46070316     0.05600
C445        C  0.38340472  0.88841828  0.45158712     0.03700
H446        H  0.44680117  0.87747739  0.45319097     0.08800
H447        H  0.36568397  0.89583533  0.45547148     0.07600
N448        N  0.44111190  0.03041408  0.59203944    -0.26800
N449        N  0.45825687  0.03814948  0.60608020    -0.34600
C450        C  0.44452659  0.04973445  0.61760493     0.01600
C451        C  0.41712020  0.04871738  0.61047097     0.07600
C452        C  0.41605556  0.03660279  0.59420783    -0.05500
H453        H  0.45278136  0.05687702  0.63041760     0.08300
H454        H  0.39796456  0.03194543  0.58466759     0.09500
Cu455      Cu  0.49741225  0.02932756  0.60863081     0.44200
Cu456      Cu  0.45009633  0.00870258  0.57094861     0.42000
Cu457      Cu  0.51326734  0.98668688  0.57250155     0.43900
N458        N  0.53424671  0.01663828  0.60793377    -0.34200
N459        N  0.54044254  0.00181829  0.59494506    -0.28400
C460        C  0.56570688  0.99744623  0.59892010    -0.04500
C461        C  0.57588258  0.00997266  0.61520488     0.07700
C462        C  0.55517917  0.02176187  0.62046587     0.01500
H463        H  0.57521245  0.98515800  0.59067636     0.09200
H464        H  0.55540621  0.03340987  0.63257303     0.08200
N465        N  0.48079140  0.97362795  0.55211600    -0.35600
N466        N  0.45814586  0.98230870  0.55169909    -0.27800
C467        C  0.44095903  0.97040804  0.53719704    -0.03000
C468        C  0.45297421  0.95301367  0.52791873     0.05600
C469        C  0.47845887  0.95577521  0.53777302     0.03700
H470        H  0.42079397  0.97384059  0.53375994     0.08800
H471        H  0.49458399  0.94611125  0.53467097     0.07600
N472        N  0.86209385  0.45277594  0.61557098    -0.26800
N473        N  0.85099195  0.43228813  0.62875507    -0.34600
C474        C  0.84410794  0.44783824  0.64152516     0.01600
C475        C  0.85124929  0.47973731  0.63612186     0.07600
C476        C  0.86278454  0.48195504  0.61961079    -0.05500
H477        H  0.83562719  0.43721501  0.65394697     0.08300
H478        H  0.87121397  0.50333563  0.61113516     0.09500
Cu479      Cu  0.84714849  0.38480110  0.62862710     0.44200
Cu480      Cu  0.87651969  0.44045617  0.59275490     0.42000
Cu481      Cu  0.87131727  0.35846310  0.58941402     0.43900
N482        N  0.84504005  0.33834035  0.62531023    -0.34200
N483        N  0.85316964  0.32835887  0.61110662    -0.28400
C484        C  0.84877574  0.29710027  0.61335284    -0.04500
C485        C  0.83737701  0.28688843  0.62975639     0.07700
C486        C  0.83556292  0.31389161  0.63693217     0.01500
H487        H  0.85451418  0.28343372  0.60385005     0.09200
H488        H  0.82786182  0.31565838  0.64971362     0.08200
N489        N  0.88929468  0.39434897  0.56991302    -0.35600
N490        N  0.89064241  0.42392922  0.57119341    -0.27800
C491        C  0.90282920  0.44103804  0.55660238    -0.03000
C492        C  0.90997629  0.42166813  0.54554976     0.05600
C493        C  0.90087829  0.39206869  0.55443860     0.03700
H494        H  0.90658360  0.46604785  0.55426926     0.08800
H495        H  0.90191409  0.37009740  0.54992877     0.07600
N496        N  0.04048869  0.44834542  0.41151773    -0.26800
N497        N  0.05060917  0.46889474  0.39843684    -0.34600
C498        C  0.06384417  0.45783620  0.38642686     0.01600
C499        C  0.06192930  0.42870034  0.39211793     0.07600
C500        C  0.04689651  0.42356759  0.40814394    -0.05500
H501        H  0.07263134  0.46918094  0.37414332     0.08300
H502        H  0.03879646  0.40192018  0.41635743     0.09500
Cu503      Cu  0.04100585  0.50749754  0.39666179     0.44200
Cu504      Cu  0.01465379  0.45264488  0.43253648     0.42000
Cu505      Cu  0.99519777  0.51878137  0.43208569     0.43900
N506        N  0.02458180  0.54105082  0.39677120    -0.34200
N507        N  0.00836073  0.54562459  0.40965969    -0.28400
C508        C  0.00135871  0.56888992  0.40552056    -0.04500
C509        C  0.01326072  0.57907975  0.38917251     0.07700
C510        C  0.02803359  0.56100117  0.38410178     0.01500
H511        H  0.98812289  0.57740584  0.41374111     0.09200
H512        H  0.04092007  0.56261463  0.37216138     0.08200
N513        N  0.98208874  0.48550083  0.45215943    -0.35600
N514        N  0.98866805  0.46113797  0.45207244    -0.27800
C515        C  0.97661648  0.44381577  0.46659577    -0.03000
C516        C  0.96160705  0.45775092  0.47649899     0.05600
C517        C  0.96589160  0.48442581  0.46685998     0.03700
H518        H  0.97880606  0.42258554  0.46968784     0.08800
H519        H  0.95873881  0.50251572  0.47032523     0.07600
C520        C  0.84809640  0.58964595  0.67345692     0.03600
C521        C  0.81931932  0.59196580  0.67183218    -0.12500
C522        C  0.82047170  0.62155846  0.67893647     0.01100
C523        C  0.85042199  0.64769223  0.68836307    -0.11000
C524        C  0.87787990  0.64408510  0.69094392     0.03600
C525        C  0.87695526  0.61542765  0.68336460    -0.10400
H526        H  0.79652616  0.57080432  0.66475990     0.09200
H527        H  0.85299092  0.67125825  0.69363085     0.06800
H528        H  0.89899279  0.61353133  0.68497864     0.06600
N529        N  0.25918920  0.83587890  0.92482154    -0.26800
N530        N  0.24111555  0.81735814  0.93825190    -0.34600
C531        C  0.25913195  0.83662116  0.95181759     0.01600
C532        C  0.29019600  0.86921126  0.94684246     0.07600
C533        C  0.28935978  0.86782072  0.92954221    -0.05500
H534        H  0.25018099  0.82723440  0.96441840     0.08300
H535        H  0.30862937  0.88849243  0.92097678     0.09500
Cu536      Cu  0.19205203  0.76762796  0.93823147     0.44200
Cu537      Cu  0.24062617  0.81609731  0.90107275     0.42000
Cu538      Cu  0.14968676  0.72934594  0.89971828     0.43900
N539        N  0.14166354  0.71959239  0.93654075    -0.34200
N540        N  0.12553512  0.70512090  0.92225268    -0.28400
C541        C  0.09350986  0.67344829  0.92521073    -0.04500
C542        C  0.08928385  0.66790912  0.94225759     0.07700
C543        C  0.12055373  0.69772745  0.94899600     0.01500
H544        H  0.07496801  0.65557100  0.91563380     0.09200
H545        H  0.12824976  0.70266270  0.96188283     0.08200
N546        N  0.17997551  0.75922444  0.87913806    -0.35600
N547        N  0.21271626  0.78996480  0.87956381    -0.27800
C548        C  0.22360967  0.80230247  0.86400671    -0.03000
C549        C  0.19620126  0.77848633  0.85327704     0.05600
C550        C  0.16916043  0.75135369  0.86332037     0.03700
H551        H  0.24946981  0.82704846  0.86088754     0.08800
H552        H  0.14293339  0.72814068  0.85952353     0.07600
N553        N  0.18377689  0.89423841  0.73638612    -0.26800
N554        N  0.15451417  0.89207955  0.73374591    -0.34600
C555        C  0.16358776  0.92027845  0.72479150     0.01600
C556        C  0.20041586  0.94124755  0.72145618     0.07600
C557        C  0.21230640  0.92385284  0.72909350    -0.05500
H558        H  0.14425980  0.92360810  0.72000131     0.08300
H559        H  0.23904156  0.93032637  0.72825178     0.09500
Cu560      Cu  0.10284698  0.84684476  0.73832985     0.44200
Cu561      Cu  0.18274294  0.85461775  0.74802048     0.42000
Cu562      Cu  0.09444265  0.77047588  0.75408391     0.43900
N563        N  0.05640722  0.79480512  0.73682237    -0.34200
N564        N  0.05349197  0.76657625  0.74230283    -0.28400
C565        C  0.02209293  0.73630435  0.73741509    -0.04500
C566        C  0.00469076  0.74594634  0.72815379     0.07700
C567        C  0.02706852  0.78331409  0.72821232     0.01500
H568        H  0.01366765  0.70924015  0.73953063     0.09200
H569        H  0.02322971  0.80092257  0.72187544     0.08200
N570        N  0.14017202  0.78362832  0.76536283    -0.35600
N571        N  0.17251619  0.81405865  0.76291105    -0.27800
C572        C  0.19491491  0.81720165  0.77407621    -0.03000
C573        C  0.17574370  0.78745542  0.78420123     0.05600
C574        C  0.14112702  0.76667123  0.77818517     0.03700
H575        H  0.22212573  0.84115523  0.77575869     0.08800
H576        H  0.11739265  0.74325164  0.78391884     0.07600
C577        C  0.32027936  0.07144391  0.64696664     0.03600
C578        C  0.31460158  0.09805298  0.64543851    -0.12500
C579        C  0.29092293  0.10008725  0.65674286     0.01100
C580        C  0.27241024  0.07374504  0.66907475    -0.11000
C581        C  0.27711861  0.04652278  0.67013788     0.03600
C582        C  0.30127358  0.04568823  0.65927310    -0.10400
H583        H  0.32868808  0.11663056  0.63535438     0.09200
H584        H  0.25511506  0.07458907  0.67842300     0.06800
H585        H  0.30533498  0.02492973  0.66041765     0.06600
C586        C  0.06874677  0.32311142  0.35278217     0.03600
C587        C  0.03827313  0.29932794  0.34327035    -0.12500
C588        C  0.03314845  0.26891819  0.33521383     0.01100
C589        C  0.05785155  0.26116885  0.33743429    -0.11000
C590        C  0.08967376  0.28522425  0.34627880     0.03600
C591        C  0.09473824  0.31646163  0.35388071    -0.10400
H592        H  0.01827213  0.30436596  0.34219430     0.09200
H593        H  0.05160680  0.23597771  0.33222452     0.06800
H594        H  0.11893303  0.33625357  0.36050772     0.06600
C595        C  0.20173123  0.96967541  0.69569728    -0.11700
C596        C  0.22051185  0.97012822  0.70906013     0.05300
C597        C  0.25831615  0.99626966  0.70947115    -0.07000
C598        C  0.27645246  0.02038529  0.69640469    -0.07800
C599        C  0.25749611  0.01949830  0.68313341    -0.02300
C600        C  0.21990461  0.99398414  0.68277138     0.04500
N601        N  0.20013837  0.99136310  0.66893497     0.67000
H602        H  0.17295502  0.94939943  0.69480721     0.15900
H603        H  0.30537125  0.04062725  0.69683843     0.15600
N604        N  0.27848940  0.99975864  0.72332674     0.74700
O605        O  0.20292488  0.97881988  0.65506046    -0.38800
O606        O  0.17647363  0.99697361  0.67112940    -0.38700
O607        O  0.30546038  0.99918038  0.72091004    -0.39400
O608        O  0.27272045  0.00878258  0.73754863    -0.39500
C609        C  0.17380958  0.74983425  0.82536180    -0.11700
C610        C  0.19450170  0.78159133  0.83516609     0.05300
C611        C  0.21222245  0.81533877  0.82752252    -0.07000
C612        C  0.20811442  0.81654882  0.81051261    -0.07800
C613        C  0.18586605  0.78476675  0.80091936    -0.02300
C614        C  0.16954228  0.75108386  0.80835989     0.04500
N615        N  0.14881389  0.71797104  0.79881174     0.67000
H616        H  0.16095249  0.72375305  0.83090982     0.15900
H617        H  0.22022682  0.84266503  0.80516670     0.15600
N618        N  0.23165646  0.84856362  0.83702651     0.74700
O619        O  0.16297070  0.71283625  0.78617779    -0.38800
O620        O  0.11772525  0.69245419  0.80394287    -0.38700
O621        O  0.26403641  0.87315674  0.83306403    -0.39400
O622        O  0.21495775  0.85554716  0.84750200    -0.39500
C623        C  0.93560960  0.70439490  0.69415018    -0.11700
C624        C  0.90857072  0.67123169  0.70110055     0.05300
C625        C  0.91225632  0.66327881  0.71715409    -0.07000
C626        C  0.94376061  0.68804893  0.72580049    -0.07800
C627        C  0.97147495  0.72110290  0.71874565    -0.02300
C628        C  0.96714410  0.72932239  0.70274607     0.04500
N629        N  0.99544385  0.76140681  0.69448941     0.67000
H630        H  0.93289009  0.71021858  0.68166345     0.15900
H631        H  0.94639423  0.68161406  0.73815682     0.15600
N632        N  0.88394478  0.63033910  0.72482731     0.74700
O633        O  0.02416494  0.76522148  0.68992942    -0.38800
O634        O  0.98959051  0.78298076  0.68943433    -0.38700
O635        O  0.88846973  0.60650210  0.72752149    -0.39400
O636        O  0.85425660  0.62494697  0.72883886    -0.39500
C637        C  0.07780530  0.35759023  0.37948463    -0.11700
C638        C  0.07205112  0.35368555  0.36226835     0.05300
C639        C  0.06567497  0.37650890  0.35481265    -0.07000
C640        C  0.06330622  0.40111514  0.36472811    -0.07800
C641        C  0.06797824  0.40437345  0.38204940    -0.02300
C642        C  0.07621232  0.38280835  0.38936152     0.04500
N643        N  0.08360279  0.38646891  0.40670999     0.67000
H644        H  0.08285069  0.34039052  0.38539475     0.15900
H645        H  0.05716344  0.41736544  0.35876265     0.15600
N646        N  0.06174133  0.37519018  0.33716215     0.74700
O647        O  0.06464531  0.35956595  0.41597408    -0.38800
O648        O  0.11222018  0.41473277  0.41216419    -0.38700
O649        O  0.03504090  0.37219142  0.33149270    -0.39400
O650        O  0.08675856  0.38076611  0.32728628    -0.39500
C651        C  0.87603644  0.54392756  0.64277065    -0.11700
C652        C  0.84972099  0.50720483  0.64595966     0.05300
C653        C  0.82288559  0.49771738  0.65849737    -0.07000
C654        C  0.82272281  0.52482017  0.66739370    -0.07800
C655        C  0.84899965  0.56142862  0.66409081    -0.02300
C656        C  0.87594830  0.57088961  0.65171281     0.04500
N657        N  0.90284195  0.60783341  0.64775196     0.67000
H658        H  0.89701464  0.55186722  0.63331690     0.15900
H659        H  0.80179471  0.51724974  0.67683138     0.15600
N660        N  0.79471100  0.46074657  0.66184952     0.74700
O661        O  0.93456052  0.62368882  0.65264272    -0.38800
O662        O  0.89627076  0.62284323  0.63742653    -0.38700
O663        O  0.79141852  0.44861128  0.67609775    -0.39400
O664        O  0.77040734  0.44165499  0.65137889    -0.39500
C665        C  0.95821092  0.43162342  0.50370908    -0.11700
C666        C  0.94687841  0.44761463  0.49399487     0.05300
C667        C  0.92278415  0.45443630  0.50144961    -0.07000
C668        C  0.91178570  0.44641659  0.51827347    -0.07800
C669        C  0.92327339  0.43055973  0.52791090    -0.02300
C670        C  0.94675561  0.42313054  0.52043057     0.04500
N671        N  0.96101967  0.40897971  0.52987367     0.67000
H672        H  0.97719099  0.42670981  0.49853803     0.15900
H673        H  0.89305251  0.45150983  0.52367339     0.15600
N674        N  0.90762354  0.46766159  0.49199567     0.74700
O675        O  0.95487714  0.37901007  0.52562892    -0.38800
O676        O  0.98407513  0.42876814  0.54075405    -0.38700
O677        O  0.88554760  0.44772919  0.48079156    -0.39400
O678        O  0.91165825  0.49652383  0.49657714    -0.39500
C679        C  0.40615526  0.08540988  0.63023702    -0.11700
C680        C  0.39244328  0.05620141  0.61877904     0.05300
C681        C  0.35517693  0.03437052  0.61554197    -0.07000
C682        C  0.33245119  0.04131677  0.62410295    -0.07800
C683        C  0.34600692  0.06969886  0.63590729    -0.02300
C684        C  0.38327803  0.09236725  0.63872421     0.04500
N685        N  0.39794999  0.12154880  0.65069890     0.67000
H686        H  0.43467597  0.10265692  0.63274972     0.15900
H687        H  0.30369772  0.02331389  0.62213326     0.15600
N688        N  0.33941046  0.00330266  0.60462233     0.74700
O689        O  0.39896248  0.11608508  0.66581548    -0.38800
O690        O  0.41373307  0.15340341  0.64587364    -0.38700
O691        O  0.33623040  0.97563706  0.60913109    -0.39400
O692        O  0.32372534  0.00144898  0.59178545    -0.39500
C693        C  0.43229353  0.95238399  0.49977401    -0.11700
C694        C  0.44173520  0.93677164  0.51084688     0.05300
C695        C  0.44084136  0.90658148  0.50525590    -0.07000
C696        C  0.43159146  0.89338102  0.48876939    -0.07800
C697        C  0.42204930  0.90896748  0.47774945    -0.02300
C698        C  0.42271063  0.93897347  0.48337124     0.04500
N699        N  0.41584746  0.95751176  0.47231592     0.67000
H700        H  0.43347642  0.97598423  0.50367829     0.15900
H701        H  0.43043423  0.86982937  0.48476944     0.15600
N702        N  0.44682999  0.88751894  0.51642370     0.74700
O703        O  0.39036728  0.96014979  0.47561237    -0.38800
O704        O  0.43821482  0.97550334  0.46062995    -0.38700
O705        O  0.42491574  0.87113023  0.52848311    -0.39400
O706        O  0.47095173  0.88292713  0.51298409    -0.39500
C707        C  0.51564317  0.83295568  0.36791738    -0.11700
C708        C  0.48033730  0.81399390  0.36213730     0.05300
C709        C  0.47176396  0.79323016  0.34710042    -0.07000
C710        C  0.49848139  0.79262137  0.33809490    -0.07800
C711        C  0.53366805  0.81207183  0.34382654    -0.02300
C712        C  0.54219618  0.83234273  0.35887535     0.04500
N713        N  0.57799458  0.85305777  0.36494797     0.67000
H714        H  0.52318761  0.84944031  0.37924994     0.15900
H715        H  0.49176425  0.77695405  0.32651710     0.15600
N716        N  0.43594895  0.77180865  0.34101180     0.74700
O717        O  0.60092014  0.88487540  0.36009938    -0.38800
O718        O  0.58500438  0.84176886  0.37696535    -0.38700
O719        O  0.43041382  0.77611242  0.32643147    -0.39400
O720        O  0.41073353  0.74545487  0.34928777    -0.39500
C721        C  0.96736117  0.23344807  0.33031596    -0.11700
C722        C  0.00187976  0.24534592  0.32435497     0.05300
C723        C  0.00613427  0.23526514  0.30796850    -0.07000
C724        C  0.97620045  0.21423074  0.29786553    -0.07800
C725        C  0.94186391  0.20300357  0.30371359    -0.02300
C726        C  0.93746761  0.21258340  0.32015981     0.04500
N727        N  0.90318746  0.20272947  0.32649317     0.67000
H728        H  0.96364744  0.24081234  0.34288107     0.15900
H729        H  0.97988362  0.20665729  0.28534429     0.15600
N730        N  0.04078789  0.24705443  0.30120439     0.74700
O731        O  0.88854989  0.18295706  0.33903766    -0.38800
O732        O  0.89005171  0.21778188  0.32106099    -0.38700
O733        O  0.04652438  0.22412164  0.29662896    -0.39400
O734        O  0.06417654  0.27991023  0.29799491    -0.39500
C735        C  0.65464228  0.92335306  0.28446430    -0.11700
C736        C  0.69137092  0.94250185  0.28768519     0.05300
C737        C  0.70252012  0.92926809  0.29932306    -0.07000
C738        C  0.67677795  0.89817330  0.30802955    -0.07800
C739        C  0.64000237  0.87922388  0.30503366    -0.02300
C740        C  0.62889348  0.89179485  0.29300940     0.04500
N741        N  0.59174428  0.87244570  0.28913302     0.67000
H742        H  0.64585547  0.93330072  0.27551178     0.15900
H743        H  0.68563511  0.88855197  0.31714182     0.15600
N744        N  0.73992274  0.94633744  0.30196497     0.74700
O745        O  0.57481734  0.88553084  0.29345162    -0.38800
O746        O  0.57763908  0.84546808  0.27921179    -0.38700
O747        O  0.75172054  0.95482432  0.31656530    -0.39400
O748        O  0.76012269  0.94872533  0.28998966    -0.39500
C749        C  0.91929796  0.33339245  0.03959730    -0.11700
C750        C  0.88261778  0.31899102  0.04101175     0.05300
C751        C  0.86928607  0.33360315  0.03165596    -0.07000
C752        C  0.89228763  0.36107631  0.02058685    -0.07800
C753        C  0.92874548  0.37486023  0.01874006    -0.02300
C754        C  0.94249466  0.36123569  0.02855702     0.04500
N755        N  0.97975111  0.37529514  0.02743846     0.67000
H756        H  0.92976696  0.32228359  0.04672199     0.15900
H757        H  0.88130400  0.37116032  0.01308422     0.15600
N758        N  0.83248199  0.32098468  0.03331452     0.74700
O759        O  0.00336237  0.40717143  0.03248470    -0.38800
O760        O  0.98867166  0.35460899  0.02338685    -0.38700
O761        O  0.82157109  0.32847083  0.04646171    -0.39400
O762        O  0.81270334  0.30765311  0.02078193    -0.39500
C763        C  0.83499420  0.16051614  0.17677177    -0.11700
C764        C  0.81796763  0.12399169  0.18018769     0.05300
C765        C  0.79734024  0.09750224  0.16770773    -0.07000
C766        C  0.79247925  0.10776018  0.15263598    -0.07800
C767        C  0.80827840  0.14409727  0.14947033    -0.02300
C768        C  0.83012952  0.17077115  0.16165611     0.04500
N769        N  0.84533494  0.20799200  0.15948132     0.67000
H770        H  0.85046023  0.18120716  0.18625816     0.15900
H771        H  0.77671617  0.08705987  0.14319194     0.15600
N772        N  0.78202674  0.06022897  0.16988218     0.74700
O773        O  0.82489521  0.21767524  0.15873558    -0.38800
O774        O  0.87884264  0.23166294  0.16072449    -0.38700
O775        O  0.74911086  0.03626301  0.16715166    -0.39400
O776        O  0.80226083  0.05094186  0.17240147    -0.39500
C777        C  0.30654390  0.89958487  0.97468339    -0.11700
C778        C  0.31761995  0.89789257  0.95821992     0.05300
C779        C  0.35462804  0.92133591  0.95368974    -0.07000
C780        C  0.37970826  0.94354367  0.96590613    -0.07800
C781        C  0.36863809  0.94255205  0.98263710    -0.02300
C782        C  0.33155900  0.92108570  0.98690957     0.04500
N783        N  0.31897707  0.91807459  0.00386171     0.67000
H784        H  0.27826003  0.88268224  0.97839006     0.15900
H785        H  0.40816586  0.96032521  0.96246163     0.15600
N786        N  0.36760469  0.92119135  0.93713481     0.74700
O787        O  0.30184502  0.93083620  0.00839340    -0.38800
O788        O  0.31978296  0.89774257  0.01347466    -0.38700
O789        O  0.38030026  0.94813273  0.92811037    -0.39400
O790        O  0.37243341  0.89754950  0.93271130    -0.39500
C791        C  0.18646586  0.81247971  0.37001222    -0.11700
C792        C  0.19135062  0.82576134  0.35396114     0.05300
C793        C  0.22543039  0.84246000  0.34577532    -0.07000
C794        C  0.25340912  0.84492014  0.35356838    -0.07800
C795        C  0.24831714  0.83121380  0.36953036    -0.02300
C796        C  0.21442039  0.81500395  0.37780376     0.04500
N797        N  0.20733479  0.79934484  0.39377334     0.67000
H798        H  0.16056360  0.79970380  0.37651444     0.15900
H799        H  0.27930729  0.85762167  0.34707804     0.15600
N800        N  0.23174615  0.85598933  0.32934186     0.74700
O801        O  0.19988036  0.81200568  0.40622703    -0.38800
O802        O  0.20301132  0.76971427  0.39488463    -0.38700
O803        O  0.25447366  0.88934164  0.32692680    -0.39400
O804        O  0.21805766  0.83426663  0.31701608    -0.39500
C805        C  0.38640493  0.00275005  0.04589064    -0.11700
C806        C  0.41486351  0.01951487  0.03402617     0.05300
C807        C  0.43442948  0.05691484  0.03185453    -0.07000
C808        C  0.42399763  0.07654705  0.04078553    -0.07800
C809        C  0.39434693  0.05959351  0.05211646    -0.02300
C810        C  0.37598968  0.02233065  0.05494913     0.04500
N811        N  0.34466879  0.00314283  0.06572155     0.67000
H812        H  0.37054565  0.97376573  0.04726315     0.15900
H813        H  0.43894993  0.10517967  0.03865595     0.15600
N814        N  0.46379802  0.07488662  0.01995631     0.74700
O815        O  0.31555851  0.99686949  0.06127504    -0.38800
O816        O  0.34445417  0.98742020  0.07818642    -0.38700
O817        O  0.46124385  0.08784866  0.00713117    -0.39400
O818        O  0.49358629  0.08119932  0.02315144    -0.39500
C819        C  0.12238748  0.91673271  0.31705442    -0.11700
C820        C  0.15101545  0.93512678  0.30525163     0.05300
C821        C  0.17449671  0.92486445  0.30283897    -0.07000
C822        C  0.16865423  0.89655783  0.31192791    -0.07800
C823        C  0.14022323  0.87835785  0.32378715    -0.02300
C824        C  0.11698107  0.88884464  0.32638657     0.04500
N825        N  0.08852679  0.87233753  0.33881438     0.67000
H826        H  0.10405978  0.92411069  0.31914635     0.15900
H827        H  0.18668232  0.88880609  0.30971747     0.15600
N828        N  0.20531735  0.94374987  0.29175418     0.74700
O829        O  0.09596558  0.87686415  0.35404959    -0.38800
O830        O  0.05641224  0.85741885  0.33475398    -0.38700
O831        O  0.23154247  0.97568579  0.29538855    -0.39400
O832        O  0.20872967  0.92686775  0.27981961    -0.39500
C833        C  0.17276678  0.20689850  0.30244537    -0.11700
C834        C  0.14445616  0.17005107  0.30407824     0.05300
C835        C  0.11592449  0.15985521  0.31568688    -0.07000
C836        C  0.11659469  0.18632287  0.32557672    -0.07800
C837        C  0.14530662  0.22297597  0.32418380    -0.02300
C838        C  0.17350550  0.23326010  0.31244485     0.04500
N839        N  0.20299224  0.27038701  0.31051794     0.67000
H840        H  0.19501943  0.21528517  0.29369791     0.15900
H841        H  0.09472222  0.17818951  0.33454022     0.15600
N842        N  0.08570989  0.12288524  0.31733248     0.74700
O843        O  0.23273955  0.28274437  0.31694645    -0.38800
O844        O  0.20121963  0.28892839  0.30015592    -0.38700
O845        O  0.07826571  0.10790196  0.33120212    -0.39400
O846        O  0.06370903  0.10686678  0.30568148    -0.39500
C847        C  0.23570085  0.11772991  0.18190822    -0.11700
C848        C  0.24661838  0.10306694  0.19272293     0.05300
C849        C  0.27091884  0.09554134  0.18655168    -0.07000
C850        C  0.28305696  0.10205939  0.16982329    -0.07800
C851        C  0.27204611  0.11659775  0.15896578    -0.02300
C852        C  0.24771498  0.12411301  0.16515373     0.04500
N853        N  0.23317526  0.13613353  0.15443213     0.67000
H854        H  0.21642260  0.12288431  0.18628017     0.15900
H855        H  0.30234859  0.09690136  0.16549807     0.15600
N856        N  0.28514644  0.08318524  0.19727102     0.74700
O857        O  0.21427343  0.11619520  0.14234761    -0.38800
O858        O  0.23486864  0.16405083  0.15836565    -0.38700
O859        O  0.28310079  0.05508003  0.19333096    -0.39400
O860        O  0.30391806  0.10285964  0.20943799    -0.39500
C861        C  0.04412367  0.43513410  0.96727803    -0.11700
C862        C  0.00652719  0.41027552  0.96734936     0.05300
C863        C  0.99073501  0.37794541  0.95778149    -0.07000
C864        C  0.01267805  0.37064734  0.94861778    -0.07800
C865        C  0.05042021  0.39482231  0.94910770    -0.02300
C866        C  0.06614350  0.42771956  0.95829565     0.04500
N867        N  0.10440838  0.45391945  0.95859286     0.67000
H868        H  0.05647380  0.45996973  0.97467179     0.15900
H869        H  0.00012852  0.34520128  0.94172503     0.15600
N870        N  0.95247316  0.35182967  0.95768840     0.74700
O871        O  0.12178280  0.46998258  0.94543338    -0.38800
O872        O  0.12019656  0.46414826  0.97231480    -0.38700
O873        O  0.93457509  0.35319553  0.94682732    -0.39400
O874        O  0.93741736  0.32450701  0.96669918    -0.39500
C875        C  0.16797819  0.13942037  0.68209456    -0.11700
C876        C  0.17915500  0.16388065  0.69579880     0.05300
C877        C  0.21594253  0.18516640  0.69997259    -0.07000
C878        C  0.24036650  0.18194734  0.69041632    -0.07800
C879        C  0.22925367  0.15811416  0.67657675    -0.02300
C880        C  0.19260339  0.13635082  0.67254918     0.04500
N881        N  0.18030480  0.11220511  0.65837442     0.67000
H882        H  0.13995285  0.12259230  0.67870266     0.15900
H883        H  0.26858169  0.19903845  0.69354304     0.15600
N884        N  0.22957855  0.21179364  0.71319643     0.74700
O885        O  0.16618563  0.07921687  0.66028345    -0.38800
O886        O  0.17822812  0.12254036  0.64453814    -0.38700
O887        O  0.24475905  0.20976993  0.72522816    -0.39400
O888        O  0.23178579  0.24019160  0.71151205    -0.39500
C889        C  0.09097159  0.27599011  0.83409623    -0.11700
C890        C  0.10725322  0.26678168  0.84487804     0.05300
C891        C  0.11720895  0.24441178  0.83852670    -0.07000
C892        C  0.11134288  0.23246842  0.82176279    -0.07800
C893        C  0.09485789  0.24152265  0.81107212    -0.02300
C894        C  0.08489535  0.26383692  0.81738549    -0.04500
N895        N  0.07046361  0.27616202  0.80680336     0.67000
H896        H  0.08390251  0.29381208  0.83845712     0.15900
H897        H  0.11851167  0.21477766  0.81726465     0.15600
N898        N  0.13137652  0.23177394  0.84907303     0.74700
O899        O  0.03973842  0.26887355  0.81013948    -0.38800
O900        O  0.09045610  0.29870804  0.79571497    -0.38700
O901        O  0.11118448  0.20912383  0.86009200    -0.39400
O902        O  0.16190348  0.23862947  0.84566684    -0.39500
C903        C  0.84061941  0.25944409  0.65494232    -0.11700
C904        C  0.83073475  0.25536957  0.63825881     0.05300
C905        C  0.81522978  0.22148364  0.63002914    -0.07000
C906        C  0.81023123  0.19281750  0.63847522    -0.07800
C907        C  0.82009693  0.19691651  0.65513798    -0.02300
C908        C  0.83544985  0.23069254  0.66339697     0.04500
N909        N  0.84498988  0.23594292  0.68050101     0.67000
H910        H  0.85260799  0.28519831  0.66148431     0.15900
H911        H  0.79844857  0.16705438  0.63195642     0.15600
N912        N  0.80302501  0.21520045  0.61334401     0.74700
O913        O  0.87759779  0.25769842  0.68437252    -0.38800
O914        O  0.82063425  0.22313747  0.69181208    -0.38700
O915        O  0.81580590  0.20519895  0.60207772    -0.39400
O916        O  0.77587290  0.21433069  0.61043203    -0.39500
C917        C  0.90561851  0.16262087  0.67615175    -0.11700
C918        C  0.87196949  0.14436194  0.68463113     0.05300
C919        C  0.86834815  0.13032927  0.70047327    -0.07000
C920        C  0.89812709  0.13511658  0.70752430    -0.07800
C921        C  0.93187824  0.15381970  0.69916111    -0.02300
C922        C  0.93543231  0.16747356  0.68325131     0.04500
N923        N  0.96952996  0.18801411  0.67452795     0.67000
H924        H  0.90887035  0.17345298  0.66397465     0.15900
H925        H  0.89489503  0.12442278  0.71973558     0.15600
N926        N  0.83498998  0.11239270  0.70986614     0.74700
O927        O  0.97435687  0.17535664  0.66120584    -0.38800
O928        O  0.99258841  0.22072423  0.67863731    -0.38700
O929        O  0.81903563  0.07996248  0.71385978    -0.39400
O930        O  0.82376878  0.13012952  0.71586046    -0.39500
C931        C  0.21794071  0.35294826  0.37115532    -0.11700
C932        C  0.20357070  0.31617496  0.37021305     0.05300
C933        C  0.22078681  0.30428663  0.37866027    -0.07000
C934        C  0.25225717  0.32940829  0.38739547    -0.07800
C935        C  0.26679802  0.36627725  0.38811418    -0.02300
C936        C  0.24877437  0.37783366  0.38014389     0.04500
N937        N  0.26091525  0.41461301  0.38125370     0.67000
H938        H  0.20533421  0.36268280  0.36467364     0.15900
H939        H  0.26567742  0.32003219  0.39342127     0.15600
N940        N  0.20657895  0.26690966  0.37864531     0.74700
O941        O  0.26727754  0.43164025  0.36811905    -0.38800
O942        O  0.26014224  0.42823923  0.39518920    -0.38700
O943        O  0.22619644  0.25713893  0.37377028    -0.39400
O944        O  0.17591543  0.24426836  0.38522230    -0.39500
C945        C  0.33194536  0.24132179  0.63002719    -0.11700
C946        C  0.34187177  0.22665704  0.64135952     0.05300
C947        C  0.37875102  0.24286113  0.64353353    -0.07000
C948        C  0.40474741  0.27259137  0.63408416    -0.07800
C949        C  0.39491692  0.28733130  0.62273033    -0.02300
C950        C  0.35805688  0.27160459  0.62082884     0.04500
N951        N  0.34668671  0.28673149  0.61011811     0.67000
H952        H  0.30369552  0.22907615  0.62825495     0.15900
H953        H  0.43289020  0.28426817  0.63572117     0.15600
N954        N  0.39027005  0.23001896  0.65555753     0.74700
O955        O  0.32760005  0.26843551  0.59778769    -0.38800
O956        O  0.35087347  0.31577680  0.61443462    -0.38700
O957        O  0.41152499  0.22199817  0.65117198    -0.39400
O958        O  0.38257195  0.23064268  0.67084107    -0.39500
C959        C  0.51078562  0.47941254  0.48495807    -0.11700
C960        C  0.48424623  0.44815104  0.47605195     0.05300
C961        C  0.46890851  0.41413211  0.48294653    -0.07000
C962        C  0.47853682  0.41216738  0.49884635    -0.07800
C963        C  0.50383256  0.44345861  0.50809370    -0.02300
C964        C  0.52064966  0.47740832  0.50081331     0.04500
N965        N  0.54592861  0.51027112  0.50970576     0.67000
H966        H  0.52278542  0.50585220  0.48001165     0.15900
H967        H  0.46634702  0.38576207  0.50389176     0.15600
N968        N  0.44439660  0.38127787  0.47381324     0.74700
O969        O  0.57852488  0.52982102  0.50477993    -0.38800
O970        O  0.53470537  0.52268074  0.52051845    -0.38700
O971        O  0.45516385  0.37389691  0.46057543    -0.39400
O972        O  0.41387852  0.35743957  0.48016580    -0.39500
C973        C  0.63034487  0.04517364  0.02770236    -0.11700
C974        C  0.62827072  0.05306987  0.04465596     0.05300
C975        C  0.59430507  0.03522336  0.05294229    -0.07000
C976        C  0.56310415  0.01049746  0.04409938    -0.07800
C977        C  0.56514807  0.00315982  0.02706295    -0.02300
C978        C  0.59916846  0.02047043  0.01884861     0.04500
N979        N  0.60241082  0.01445049  0.00139628     0.67000
H980        H  0.65633157  0.05868872  0.02121576     0.15900
H981        H  0.53706557  0.99724073  0.05052221     0.15600
N982        N  0.59089052  0.04339364  0.07004164     0.74700
O983        O  0.59218863  0.02585619  0.99089001    -0.38800
O984        O  0.61927286  0.00160853  0.99644689    -0.38700
O985        O  0.59050552  0.07019751  0.07373819    -0.39400
O986        O  0.58207291  0.02061810  0.08100652    -0.39500
C987        C  0.00732244  0.62648838  0.35338680    -0.11700
C988        C  0.01422655  0.65772902  0.36148499     0.05300
C989        C  0.01963513  0.66234897  0.37883655    -0.07000
C990        C  0.01835497  0.63605298  0.38766986    -0.07800
C991        C  0.01202862  0.60504117  0.37951728    -0.02300
C992        C  0.00612320  0.60022676  0.36217729     0.04500
N993        N  0.99803451  0.56847479  0.35334565     0.67000
H994        H  0.00336066  0.62269753  0.34004954     0.15900
H995        H  0.02304087  0.64029219  0.40094138     0.15600
N996        N  0.02627305  0.69350535  0.38766737     0.74700
O997        O  0.96859390  0.53829658  0.35632543    -0.38800
O998        O  0.01774825  0.57125500  0.34104315    -0.38700
O999        O  0.00055594  0.69575205  0.39100074    -0.39400
O1000       O  0.05639108  0.71603026  0.39419156    -0.39500
C1001       C  0.91180205  0.68280423  0.31303530    -0.11700
C1002       C  0.91800172  0.68431503  0.29562653     0.05300
C1003       C  0.95040643  0.69021793  0.28932701    -0.07000
C1004       C  0.97618957  0.69620360  0.30037079    -0.07800
C1005       C  0.97030699  0.69593443  0.31770674    -0.02300
C1006       C  0.93744229  0.68847311  0.32401084     0.04500
N1007       N  0.93040824  0.68822302  0.34158289     0.67000
H1008       H  0.88701071  0.67761620  0.31826948     0.15900
H1009       H  0.00120872  0.70151719  0.29536699     0.15600
N1010       N  0.95833611  0.69152150  0.27182251     0.74700
O1011       O  0.94364695  0.71766196  0.34961819    -0.38800
O1012       O  0.90709096  0.65880242  0.34857330    -0.38700
O1013       O  0.97127971  0.72029816  0.26420529    -0.39400
O1014       O  0.95842966  0.66642991  0.26468735    -0.39500
C1015       C  0.80654506  0.62557380  0.16494854    -0.11700
C1016       C  0.77615847  0.61330887  0.17544143     0.05300
C1017       C  0.74161754  0.59127803  0.16852151    -0.07000
C1018       C  0.73820455  0.58255372  0.15140707    -0.07800
C1019       C  0.76853619  0.59486650  0.14084961    -0.02300
C1020       C  0.80314932  0.61712168  0.14775754     0.04500
N1021       N  0.83515049  0.63323420  0.13740158     0.67000
H1022       H  0.83325870  0.64325848  0.16998757     0.15900
H1023       H  0.71139293  0.56478520  0.14649692     0.15600
N1024       N  0.70960256  0.57586017  0.17881977     0.74700
O1025       O  0.84089688  0.65413304  0.12602665    -0.38800
O1026       O  0.85976185  0.63050172  0.14099393    -0.38700
O1027       O  0.68560006  0.57944083  0.17514974    -0.39400
O1028       O  0.70324221  0.55486713  0.19027080    -0.39500
C1029       C  0.64033218  0.70110830  0.29029847    -0.11700
C1030       C  0.65496232  0.72890002  0.30248234     0.05300
C1031       C  0.69223780  0.75017036  0.30513882    -0.07000
C1032       C  0.71395132  0.74223595  0.29623981    -0.07800
C1033       C  0.69915442  0.71333570  0.28452295    -0.02300
C1034       C  0.66195606  0.69315329  0.28131194     0.04500
N1035       N  0.64499428  0.66255204  0.27007976     0.67000
H1036       H  0.61153859  0.68412730  0.28845034     0.15900
H1037       H  0.74244265  0.75840687  0.29873305     0.15600
N1038       N  0.70802064  0.77863761  0.31750427     0.74700
O1039       O  0.64039974  0.63391941  0.27415415    -0.38800
O1040       O  0.62944705  0.66210729  0.25751334    -0.38700
O1041       O  0.71319558  0.77294900  0.33186434    -0.39400
O1042       O  0.72130192  0.81046133  0.31340805    -0.39500
C1043       C  0.57708395  0.68137247  0.36662704    -0.11700
C1044       C  0.56753860  0.67608990  0.34989968     0.05300
C1045       C  0.53807250  0.64204487  0.34424384    -0.07000
C1046       C  0.51811070  0.61391779  0.35540049    -0.07800
C1047       C  0.52700163  0.61908149  0.37227631    -0.02300
C1048       C  0.55706965  0.65312754  0.37786995     0.04500
N1049       N  0.56669952  0.65990597  0.39498823     0.67000
H1050       H  0.59994209  0.70757252  0.37097328     0.15900
H1051       H  0.49550853  0.58786334  0.35079209     0.15600
N1052       N  0.52786983  0.63590474  0.32721198     0.74700
O1053       O  0.59638798  0.66694710  0.39900424    -0.38800
O1054       O  0.54821730  0.66410745  0.40566188    -0.38700
O1055       O  0.53360479  0.61703577  0.31761904    -0.39400
O1056       O  0.51004031  0.64635872  0.32220007    -0.39500
C1057       C  0.53801312  0.48309190  0.03111683    -0.11700
C1058       C  0.54174967  0.48981295  0.01402865     0.05300
C1059       C  0.57404624  0.50064477  0.00542914    -0.07000
C1060       C  0.60179239  0.50417652  0.01396790    -0.07800
C1061       C  0.59811502  0.49735760  0.03110885    -0.02300
C1062       C  0.56576092  0.48685998  0.03971179     0.04500
N1063       N  0.56006369  0.47880512  0.05704255     0.67000
H1064       H  0.51330116  0.47487651  0.03785369     0.15900
H1065       H  0.62645949  0.51257543  0.00715267     0.15600
N1066       N  0.57869884  0.50735624  0.98796542     0.74700
O1067       O  0.55705039  0.49860737  0.06738545    -0.38800
O1068       O  0.55140890  0.44865699  0.06151969    -0.38700
O1069       O  0.60199879  0.53886604  0.98285625    -0.39400
O1070       O  0.56275913  0.48121694  0.97759486    -0.39500
C1071       C  0.02303060  0.60524785  0.97599331    -0.11700
C1072       C  0.00598093  0.57154914  0.96772443     0.05300
C1073       C  0.01583870  0.56978014  0.95098063    -0.07000
C1074       C  0.04250788  0.60152199  0.94283798    -0.07800
C1075       C  0.05971146  0.63534305  0.95109407    -0.02300
C1076       C  0.04952066  0.63707141  0.96785583     0.04500
N1077       N  0.06485349  0.67084237  0.97665906     0.67000
H1078       H  0.01559958  0.60686801  0.98887413     0.15900
H1079       H  0.05007883  0.59955399  0.93004160     0.15600
N1080       N  0.99846252  0.53602597  0.94198524     0.74700
O1081       O  0.05888343  0.69261515  0.97202838    -0.38800
O1082       O  0.07995274  0.67667134  0.99032918    -0.38700
O1083       O  0.96815579  0.52216198  0.93579280    -0.39400
O1084       O  0.01563274  0.52303109  0.93807001    -0.39500
C1085       C  0.90862515  0.53732212  0.01574750    -0.11700
C1086       C  0.89706385  0.50682843  0.00544061     0.05300
C1087       C  0.85995343  0.47801129  0.00539535    -0.07000
C1088       C  0.83527226  0.48077573  0.01510247    -0.07800
C1089       C  0.84688123  0.51170499  0.02509805    -0.02300
C1090       C  0.88409061  0.54005530  0.02546119     0.04500
N1091       N  0.89732827  0.57266648  0.03493666     0.67000
H1092       H  0.93703823  0.55954569  0.01609638     0.15900
H1093       H  0.80683999  0.45863609  0.01479053     0.15600
N1094       N  0.84676302  0.44628007  0.99521236     0.74700
O1095       O  0.91842205  0.58163280  0.04670099    -0.38800
O1096       O  0.89224548  0.59491262  0.03003172    -0.38700
O1097       O  0.83274844  0.41633637  0.00194864    -0.39400
O1098       O  0.84479778  0.44727178  0.97966943    -0.39500
C1099       C  0.46734932  0.83233230  0.98302329    -0.11700
C1100       C  0.49418332  0.84299021  0.97046896     0.05300
C1101       C  0.51938699  0.88021035  0.96732737    -0.07000
C1102       C  0.51781436  0.90566454  0.97690376    -0.07800
C1103       C  0.49165883  0.89506697  0.98971545    -0.02300
C1104       C  0.46570750  0.85796554  0.99251078     0.04500
N1105       N  0.43848640  0.84600166  0.00536601     0.67000
H1106       H  0.44756853  0.80393284  0.98551851     0.15900
H1107       H  0.53804429  0.93414820  0.97470462     0.15600
N1108       N  0.54831892  0.89292344  0.95529633     0.74700
O1109       O  0.40809421  0.83792138  0.00188974    -0.38800
O1110       O  0.44257587  0.83758717  0.01928978    -0.38700
O1111       O  0.55191035  0.91192324  0.94346894    -0.39400
O1112       O  0.57321720  0.88996030  0.95791773    -0.39500
C1113       C  0.50450797  0.58117023  0.96156740    -0.11700
C1114       C  0.50216700  0.60593063  0.97158545     0.05300
C1115       C  0.49480137  0.59965489  0.98894722    -0.07000
C1116       C  0.48957409  0.56920421  0.99566898    -0.07800
C1117       C  0.49224945  0.54509641  0.98554286    -0.02300
C1118       C  0.49985673  0.55124734  0.96840347     0.04500
N1119       N  0.50298582  0.52720472  0.95778768     0.67000
H1120       H  0.50958042  0.58455453  0.94825178     0.15900
H1121       H  0.48405187  0.56470025  0.00894203     0.15600
N1122       N  0.49390075  0.62440953  0.00010486     0.74700
O1123       O  0.47524480  0.49935739  0.95149817    -0.38800
O1124       O  0.53306470  0.53238751  0.95568269    -0.38700
O1125       O  0.46545703  0.61388572  0.00851969    -0.39400
O1126       O  0.52288643  0.65456747  0.00363095    -0.39500
C1127       C  0.59159201  0.78190515  0.82963987    -0.11700
C1128       C  0.61908648  0.77747905  0.82640388     0.05300
C1129       C  0.62846486  0.76489797  0.83925334    -0.07000
C1130       C  0.61010260  0.75663900  0.85478276    -0.07800
C1131       C  0.58255585  0.76100527  0.85801775    -0.02300
C1132       C  0.57310832  0.77347685  0.84514788     0.04500
N1133       N  0.54335403  0.77557181  0.84720582     0.67000
H1134       H  0.58331000  0.79062393  0.81984299     0.15900
H1135       H  0.61840082  0.74789808  0.86455870     0.15600
N1136       N  0.65785766  0.76224091  0.83710666     0.74700
O1137       O  0.54834159  0.80543469  0.84571306    -0.38800
O1138       O  0.51162880  0.74689253  0.84768609    -0.38700
O1139       O  0.68976123  0.79063956  0.83660531    -0.39400
O1140       O  0.65238481  0.73213909  0.83856311    -0.39500
C1141       C  0.72535308  0.96910504  0.68735572    -0.11700
C1142       C  0.69755418  0.97343721  0.68844154     0.05300
C1143       C  0.66735679  0.95090273  0.69908429    -0.07000
C1144       C  0.66601548  0.92532189  0.70862692    -0.07800
C1145       C  0.69431059  0.92169042  0.70781780    -0.02300
C1146       C  0.72413326  0.94380535  0.69692372     0.04500
N1147       N  0.75435813  0.94236574  0.69605827     0.67000
H1148       H  0.74865334  0.98605168  0.67919051     0.15900
H1149       H  0.64282543  0.90840003  0.71684048     0.15600
N1150       N  0.63853094  0.95450995  0.70082303     0.74700
O1151       O  0.76238593  0.93297920  0.68255459    -0.38800
O1152       O  0.77609799  0.95576459  0.70785787    -0.38700
O1153       O  0.60652305  0.92736123  0.69849621    -0.39400
O1154       O  0.64449092  0.98368484  0.70648373    -0.39500
C1155       C  0.65951899  0.01956333  0.62889101    -0.11700
C1156       C  0.65262648  0.01464028  0.64615350     0.05300
C1157       C  0.61935526  0.00556000  0.65285978    -0.07000
C1158       C  0.59465026  0.00355789  0.64250963    -0.07800
C1159       C  0.60206565  0.00998427  0.62534186    -0.02300
C1160       C  0.63456221  0.01707054  0.61845064     0.04500
N1161       N  0.64362607  0.02376515  0.60108176     0.67000
H1162       H  0.68489347  0.02633616  0.62354953     0.15900
H1163       H  0.56962852  0.99737775  0.64802313     0.15600
N1164       N  0.61097362  0.00000188  0.67032002     0.74700
O1165       O  0.65257587  0.05306877  0.59525001    -0.38800
O1166       O  0.64771311  0.00292899  0.59213858    -0.38700
O1167       O  0.62345271  0.02680959  0.68025414    -0.39400
O1168       O  0.58717135  0.96864776  0.67546036    -0.39500
C1169       C  0.76311873  0.72337198  0.71122710    -0.11700
C1170       C  0.72746538  0.70643055  0.71714547     0.05300
C1171       C  0.70164518  0.66941160  0.71356316    -0.07000
C1172       C  0.71137929  0.65039427  0.70351257    -0.07800
C1173       C  0.74679308  0.66759093  0.69706455    -0.02300
C1174       C  0.77305483  0.70424626  0.70139629     0.04500
N1175       N  0.80940206  0.72296363  0.69513417     0.67000
H1176       H  0.78317164  0.75187397  0.71391199     0.15900
H1177       H  0.69095516  0.62218531  0.70042760     0.15600
N1178       N  0.66491139  0.65142511  0.71905361     0.74700
O1179       O  0.81719953  0.73392474  0.68036587    -0.38800
O1180       O  0.83432755  0.73304129  0.70500035    -0.38700
O1181       O  0.64255022  0.64862792  0.70945759    -0.39400
O1182       O  0.65375556  0.63343347  0.73219306    -0.39500
C1183       C  0.69840671  0.54834575  0.64870430    -0.11700
C1184       C  0.71380366  0.58508752  0.64741195     0.05300
C1185       C  0.70368179  0.59656582  0.63447353    -0.07000
C1186       C  0.67838757  0.57105869  0.62299320    -0.07800
C1187       C  0.66271423  0.53410631  0.62438593    -0.02300
C1188       C  0.67331656  0.52287542  0.63733555     0.04500
N1189       N  0.65967448  0.48588768  0.63891272     0.67000
H1190       H  0.70622025  0.53936651  0.65861259     0.15900
H1191       H  0.67026882  0.58007601  0.61325934     0.15600
N1192       N  0.71911486  0.63390647  0.63275040     0.74700
O1193       O  0.66613770  0.47036316  0.62747137    -0.38800
O1194       O  0.64580745  0.47046941  0.65263394    -0.38700
O1195       O  0.74648474  0.65295675  0.62328422    -0.39400
O1196       O  0.70212836  0.64618541  0.63839771    -0.39500
C1197       C  0.28860268  0.35918011  0.98720444    -0.11700
C1198       C  0.32014683  0.36715153  0.97899170     0.05300
C1199       C  0.32370103  0.37094569  0.96152590    -0.07000
C1200       C  0.29564713  0.36601897  0.95262953    -0.07800
C1201       C  0.26393191  0.35781370  0.96082109    -0.02300
C1202       C  0.26067151  0.35459632  0.97836160     0.04500
N1203       N  0.22878150  0.34554727  0.98737391     0.67000
H1204       H  0.28565228  0.35655247  0.00063693     0.15900
H1205       H  0.29890068  0.36901388  0.93922443     0.15600
N1206       N  0.35535036  0.37915657  0.95260101     0.74700
O1207       O  0.19987261  0.31417331  0.98588910    -0.38800
O1208       O  0.23073587  0.36699006  0.99854477    -0.38700
O1209       O  0.35871300  0.35425265  0.94887727    -0.39400
O1210       O  0.37687049  0.40969116  0.94616989    -0.39500
C1211       C  0.36661223  0.33120480  0.03886105    -0.11700
C1212       C  0.36165492  0.32400146  0.02163740     0.05300
C1213       C  0.35275045  0.29065266  0.01508800    -0.07000
C1214       C  0.35017294  0.26582198  0.02563770    -0.07800
C1215       C  0.35614472  0.27335858  0.04281967    -0.02300
C1216       C  0.36393414  0.30633295  0.04946143     0.04500
N1217       N  0.37138298  0.31604551  0.06672110     0.67000
H1218       H  0.37361039  0.35679981  0.04404902     0.15900
H1219       H  0.34376094  0.24057230  0.02028346     0.15600
N1220       N  0.34807170  0.28238347  0.99760250     0.74700
O1221       O  0.40092552  0.32521764  0.07222761    -0.38800
O1222       O  0.35126985  0.32098099  0.07575897    -0.38700
O1223       O  0.37517703  0.29313940  0.98807422    -0.39400
O1224       O  0.31682040  0.26008157  0.99211204    -0.39500
loop_ 
_geom_bond_atom_site_label_1 
_geom_bond_atom_site_label_2 
_geom_bond_distance 
_geom_bond_site_symmetry_2 
_ccdc_geom_bond_type 
C1            C2   1.405       .  A
C1            C6   1.406       .  A
C1         C1198   1.488       .  S
C2            C3   1.403   1_556  A
C2            H7   1.084   1_556  S
C3            C4   1.404       .  A
C3         C1212   1.488       .  S
C4            C5   1.412   1_554  A
C4            H8   1.080       .  S
C5            C6   1.413       .  A
C5           C87   1.507       .  S
C6            H9   1.080       .  S
C10          C11   1.403       .  A
C10          C15   1.409       .  A
C10        C1173   1.487       .  S
C11          C12   1.397       .  A
C11          H16   1.084       .  S
C12          C13   1.397       .  A
C12        C1184   1.474       .  S
C13          C14   1.404       .  A
C13          H17   1.081       .  S
C14          C15   1.416       .  A
C14         C522   1.499       .  S
C15          H18   1.081       .  S
C19          C20   1.405   1_545  A
C19          C24   1.404       .  A
C19        C1142   1.491   1_545  S
C20          C21   1.406   1_565  A
C20          H25   1.083       .  S
C21          C22   1.408       .  A
C21        C1156   1.490       .  S
C22          C23   1.413       .  A
C22          H26   1.081       .  S
C23          C24   1.410       .  A
C23         C219   1.509       .  S
C24          H27   1.081       .  S
N28          N29   1.323       .  A
N28          C32   1.349       .  A
N28         Cu36   2.087       .  S
N29          C30   1.344       .  A
N29         Cu35   2.074       .  S
C30          C31   1.381       .  A
C30          H33   1.082       .  S
C31          C32   1.386       .  A
C31        C1170   1.477       .  S
C32          H34   1.082       .  S
Cu35         N38   2.074       .  S
Cu36         N46   2.088       .  S
Cu37         N39   2.084       .  S
Cu37         N45   2.084       .  S
N38          N39   1.321       .  A
N38          C42   1.345       .  A
N39          C40   1.348       .  A
C40          C41   1.388       .  A
C40          H43   1.082       .  S
C41          C42   1.386       .  A
C41        C1145   1.487       .  S
C42          H44   1.081       .  S
N45          N46   1.323       .  A
N45          C49   1.345       .  A
N46          C47   1.347       .  A
C47          C48   1.389       .  A
C47          H50   1.081       .  S
C48          C49   1.386       .  A
C48        C1128   1.489       .  S
C49          H51   1.082       .  S
N52          N53   1.324       .  A
N52          C56   1.346       .  A
N52         Cu60   2.088       .  S
N53          C54   1.348       .  A
N53         Cu59   2.089       .  S
C54          C55   1.387       .  A
C54          H57   1.082       .  S
C55          C56   1.388       .  A
C55        C1100   1.489       .  S
C56          H58   1.081       .  S
Cu59         N62   2.088       .  S
Cu60         N70   2.087       .  S
Cu61         N63   2.072       .  S
Cu61         N69   2.072       .  S
N62          N63   1.320       .  A
N62          C66   1.348       .  A
N63          C64   1.342       .  A
C64          C65   1.390       .  A
C64          H67   1.081       .  S
C65          C66   1.395       .  A
C65        C1114   1.499       .  S
C66          H68   1.079       .  S
N69          N70   1.321       .  A
N69          C73   1.344       .  A
N70          C71   1.348       .  A
C71          C72   1.391       .  A
C71          H74   1.081       .  S
C72          C73   1.386       .  A
C72        C1131   1.490       .  S
C73          H75   1.082       .  S
C76          C77   1.401       .  A
C76          C81   1.406       .  A
C76        C1086   1.491   1_556  S
C77          C78   1.400       .  A
C77          H82   1.084       .  S
C78          C79   1.401       .  A
C78        C1072   1.478   1_655  S
C79          C80   1.406       .  A
C79          H83   1.082   1_655  S
C80          C81   1.418       .  A
C80         C410   1.500       .  S
C81          H84   1.080   1_556  S
C85          C86   1.404       .  A
C85          C90   1.401   1_554  A
C85        C1058   1.482       .  S
C86          C87   1.414   1_554  A
C86          H91   1.081       .  S
C87          C88   1.413       .  A
C88          C89   1.403       .  A
C88          H92   1.081       .  S
C89          C90   1.400       .  A
C89        C1117   1.477       .  S
C90          H93   1.084       .  S
C94          C95   1.408       .  A
C94          C99   1.393       .  A
C94        C1030   1.480       .  S
C95          C96   1.427       .  A
C95         H100   1.054       .  S
C96          C97   1.413       .  A
C96         C417   1.514       .  S
C97          C98   1.401       .  A
C97         H101   1.076       .  S
C98          C99   1.393       .  A
C98        C1044   1.469       .  S
C99         H102   1.086       .  S
N103        N104   1.321       .  A
N103        C107   1.347       .  A
N103       Cu111   2.078       .  S
N104        C105   1.346       .  A
N104       Cu110   2.083       .  S
C105        C106   1.388       .  A
C105        H108   1.082       .  S
C106        C107   1.388       .  A
C106       C1033   1.490       .  S
C107        H109   1.081       .  S
Cu110       N113   2.083       .  S
Cu111       N121   2.079       .  S
Cu112       N114   2.091       .  S
Cu112       N120   2.090       .  S
N113        N114   1.322       .  A
N113        C117   1.344       .  A
N114        C115   1.349       .  A
C115        C116   1.392       .  A
C115        H118   1.080       .  S
C116        C117   1.389       .  A
C116       C1002   1.497       .  S
C117        H119   1.082       .  S
N120        N121   1.323       .  A
N120        C124   1.348       .  A
N121        C122   1.345       .  A
C122        C123   1.385       .  A
C122        H125   1.082       .  S
C123        C124   1.388       .  A
C123       C1016   1.487       .  S
C124        H126   1.082       .  S
N127        N128   1.323       .  A
N127        C131   1.346       .  A
N127       Cu135   2.083       .  S
N128        C129   1.348       .  A
N128       Cu134   2.087       .  S
C129        C130   1.387       .  A
C129        H132   1.082       .  S
C130        C131   1.386       .  A
C130       C1089   1.487       .  S
C131        H133   1.081       .  S
Cu134       N137   2.087       .  S
Cu135       N145   2.083       .  S
Cu136       N138   2.075       .  S
Cu136       N144   2.075       .  S
N137        N138   1.322       .  A
N137        C141   1.347       .  A
N138        C139   1.345       .  A
C139        C140   1.386       .  A
C139        H142   1.081       .  S
C140        C141   1.388       .  A
C140       C1061   1.488       .  S
C141        H143   1.082       .  S
N144        N145   1.321       .  A
N144        C148   1.344       .  A
N145        C146   1.347       .  A
C146        C147   1.390       .  A
C146        H149   1.081       .  S
C147        C148   1.387       .  A
C147       C1019   1.491       .  S
C148        H150   1.082       .  S
C151        C152   1.404   1_455  A
C151        C156   1.403       .  A
C151        C988   1.487       .  S
C152        C153   1.403       .  A
C152        H157   1.084       .  S
C153        C154   1.407   1_655  A
C153       C1005   1.488       .  S
C154        C155   1.415       .  A
C154        H158   1.081       .  S
C155        C156   1.412       .  A
C155        C335   1.509       .  S
C156        H159   1.080       .  S
C160        C161   1.406       .  A
C160        C165   1.399       .  A
C160       C1103   1.486   1_554  S
C161        C162   1.420       .  A
C161        H166   1.080   1_554  S
C162        C163   1.406       .  A
C162        C344   1.502       .  S
C163        C164   1.400       .  A
C163        H167   1.082   1_565  S
C164        C165   1.398       .  A
C164        C977   1.476   1_565  S
C165        H168   1.084       .  S
N169        N170   1.321       .  A
N169        C173   1.348       .  A
N169       Cu177   2.084       .  S
N170        C171   1.337       .  A
N170       Cu176   2.046       .  S
C171        C172   1.379       .  A
C171        H174   1.081       .  S
C172        C173   1.389       .  A
C172       C1187   1.478       .  S
C173        H175   1.082       .  S
Cu176       N179   2.046       .  S
Cu177       N187   2.085       .  S
Cu178       N180   2.065       .  S
Cu178       N186   2.067       .  S
N179        N180   1.318       .  A
N179        C183   1.339       .  A
N180        C181   1.345       .  A
C181        C182   1.388       .  A
C181        H184   1.081       .  S
C182        C183   1.383       .  A
C182        C949   1.478       .  S
C183        H185   1.082       .  S
N186        N187   1.323       .  A
N186        C190   1.340       .  A
N187        C188   1.347       .  A
C188        C189   1.390       .  A
C188        H191   1.081       .  S
C189        C190   1.382       .  A
C189        C963   1.485       .  S
C190        H192   1.082       .  S
N193        N194   1.319       .  A
N193        C197   1.347       .  A
N193       Cu201   2.070       .  S
N194        C195   1.339       .  A
N194       Cu200   2.052       .  S
C195        C196   1.382       .  A
C195        H198   1.082       .  S
C196        C197   1.388       .  A
C196       C1047   1.478       .  S
C197        H199   1.081       .  S
Cu200       N203   2.052       .  S
Cu201       N211   2.072       .  S
Cu202       N204   2.085       .  S
Cu202       N210   2.087       .  S
N203        N204   1.320       .  A
N203        C207   1.339       .  A
N204        C205   1.348       .  A
C205        C206   1.391       .  A
C205        H208   1.082       .  S
C206        C207   1.382       .  A
C206        C935   1.484       .  S
C207        H209   1.081       .  S
N210        N211   1.324       .  A
N210        C214   1.346       .  A
N211        C212   1.343       .  A
C212        C213   1.384       .  A
C212        H215   1.082       .  S
C213        C214   1.389       .  A
C213        C960   1.486       .  S
C214        H216   1.081       .  S
C217        C218   1.404       .  A
C217        C222   1.403       .  A
C217        C918   1.491       .  S
C218        C219   1.414       .  A
C218        H223   1.080       .  S
C219        C220   1.413       .  A
C220        C221   1.407       .  A
C220        H224   1.081       .  S
C221        C222   1.404       .  A
C221        C907   1.489       .  S
C222        H225   1.083       .  S
N226        N227   1.322       .  A
N226        C230   1.346       .  A
N226       Cu234   2.083       .  S
N227        C228   1.347       .  A
N227       Cu233   2.087       .  S
C228        C229   1.389       .  A
C228        H231   1.082       .  S
C229        C230   1.389       .  A
C229        C876   1.493       .  S
C230        H232   1.081       .  S
Cu233       N236   2.087       .  S
Cu234       N244   2.082       .  S
Cu235       N237   2.080       .  S
Cu235       N243   2.080       .  S
N236        N237   1.323       .  A
N236        C240   1.348   1_455  A
N237        C238   1.345   1_455  A
C238        C239   1.385       .  A
C238        H241   1.082       .  S
C239        C240   1.388       .  A
C239        C921   1.486       .  S
C240        H242   1.081       .  S
N243        N244   1.322       .  A
N243        C247   1.346       .  A
N244        C245   1.346       .  A
C245        C246   1.387       .  A
C245        H248   1.082       .  S
C246        C247   1.388       .  A
C246        C893   1.489       .  S
C247        H249   1.081       .  S
N250        N251   1.322       .  A
N250        C254   1.347       .  A
N250       Cu258   2.081       .  S
N251        C252   1.345       .  A
N251       Cu257   2.079       .  S
C252        C253   1.386       .  A
C252        H255   1.082       .  S
C253        C254   1.387       .  A
C253        C865   1.485       .  S
C254        H256   1.082       .  S
Cu257       N260   2.080       .  S
Cu258       N268   2.081       .  S
Cu259       N261   2.088       .  S
Cu259       N267   2.088       .  S
N260        N261   1.322       .  A
N260        C264   1.346       .  A
N261        C262   1.347       .  A
C262        C263   1.388       .  A
C262        H265   1.082       .  S
C263        C264   1.387       .  A
C263       C1201   1.489       .  S
C264        H266   1.081       .  S
N267        N268   1.322       .  A
N267        C271   1.347       .  A
N268        C269   1.345       .  A
C269        C270   1.388       .  A
C269        H272   1.082       .  S
C270        C271   1.391       .  A
C270        C890   1.494       .  S
C271        H273   1.080       .  S
C274        C275   1.407       .  A
C274        C279   1.399       .  A
C274        C879   1.486       .  S
C275        C276   1.421       .  A
C275        H280   1.080       .  S
C276        C277   1.408       .  A
C276        C579   1.508       .  S
C277        C278   1.400       .  A
C277        H281   1.078       .  S
C278        C279   1.398       .  A
C278        C946   1.479       .  S
C279        H282   1.084       .  S
N283        N284   1.322       .  A
N283        C287   1.345       .  A
N283       Cu291   2.076       .  S
N284        C285   1.346       .  A
N284       Cu290   2.079       .  S
C285        C286   1.387       .  A
C285        H288   1.081       .  S
C286        C287   1.386       .  A
C286        C834   1.484       .  S
C287        H289   1.082       .  S
Cu290       N293   2.079       .  S
Cu291       N301   2.076       .  S
Cu292       N294   2.084       .  S
Cu292       N300   2.084       .  S
N293        N294   1.322       .  A
N293        C297   1.346   1_545  A
N294        C295   1.346   1_545  A
C295        C296   1.389       .  A
C295        H298   1.081       .  S
C296        C297   1.387       .  A
C296        C820   1.491       .  S
C297        H299   1.082       .  S
N300        N301   1.322       .  A
N300        C304   1.347       .  A
N301        C302   1.345       .  A
C302        C303   1.386       .  A
C302        H305   1.082       .  S
C303        C304   1.389       .  A
C303        C848   1.489       .  S
C304        H306   1.081       .  S
N307        N308   1.321       .  A
N307        C311   1.347       .  A
N307       Cu315   2.076       .  S
N308        C309   1.345       .  A
N308       Cu314   2.083       .  S
C309        C310   1.388       .  A
C309        H312   1.082       .  S
C310        C311   1.388       .  A
C310        C809   1.490       .  S
C311        H313   1.081       .  S
Cu314       N317   2.084       .  S
Cu315       N325   2.076       .  S
Cu316       N318   2.087       .  S
Cu316       N324   2.088       .  S
N317        N318   1.323       .  A
N317        C321   1.346       .  A
N318        C319   1.348       .  A
C319        C320   1.389       .  A
C319        H322   1.081       .  S
C320        C321   1.387       .  A
C320       C1215   1.490       .  S
C321        H323   1.082       .  S
N324        N325   1.322       .  A
N324        C328   1.347       .  A
N325        C326   1.344       .  A
C326        C327   1.386       .  A
C326        H329   1.082       .  S
C327        C328   1.390       .  A
C327        C851   1.491       .  S
C328        H330   1.081       .  S
C331        C332   1.406       .  A
C331        C336   1.407       .  A
C331        C823   1.491       .  S
C332        C333   1.402       .  A
C332        H337   1.083       .  S
C333        C334   1.405       .  A
C333        C792   1.492       .  S
C334        C335   1.414       .  A
C334        H338   1.080       .  S
C335        C336   1.413       .  A
C336        H339   1.079       .  S
C340        C341   1.397       .  A
C340        C345   1.406       .  A
C340        C806   1.479   1_565  S
C341        C342   1.396   1_554  A
C341        H346   1.084       .  S
C342        C343   1.399       .  A
C342        C781   1.477       .  S
C343        C344   1.407   1_556  A
C343        H347   1.080       .  S
C344        C345   1.420       .  A
C345        H348   1.081       .  S
C349        C350   1.403       .  A
C349        C354   1.398       .  A
C349        C837   1.481       .  S
C350        C351   1.416       .  A
C350        H355   1.080       .  S
C351        C352   1.410       .  A
C351        C590   1.508       .  S
C352        C353   1.407       .  A
C352        H356   1.080       .  S
C353        C354   1.401       .  A
C353        C932   1.487       .  S
C354        H357   1.082       .  S
N358        N359   1.319       .  A
N358        C362   1.344       .  A
N358       Cu366   2.062       .  S
N359        C360   1.341       .  A
N359       Cu365   2.052       .  S
C360        C361   1.381       .  A
C360        H363   1.082       .  S
C361        C362   1.384       .  A
C361        C974   1.473       .  S
C362        H364   1.081       .  S
Cu365       N368   2.052       .  S
Cu366       N376   2.064       .  S
Cu367       N369   2.072       .  S
Cu367       N375   2.073       .  S
N368        N369   1.321       .  A
N368        C372   1.338       .  A
N369        C370   1.346       .  A
C370        C371   1.385       .  A
C370        H373   1.082       .  S
C371        C372   1.379       .  A
C371        C750   1.471       .  S
C372        H374   1.082       .  S
N375        N376   1.322       .  A
N375        C379   1.346       .  A
N376        C377   1.340       .  A
C377        C378   1.382       .  A
C377        H380   1.082       .  S
C378        C379   1.387       .  A
C378        C767   1.480       .  S
C379        H381   1.081       .  S
N382        N383   1.320       .  A
N382        C386   1.345       .  A
N382       Cu390   2.074       .  S
N383        C384   1.342       .  A
N383       Cu389   2.052       .  S
C384        C385   1.381       .  A
C384        H387   1.081       .  S
C385        C386   1.387       .  A
C385        C725   1.477       .  S
C386        H388   1.082       .  S
Cu389       N392   2.052       .  S
Cu390       N400   2.075       .  S
Cu391       N393   2.071       .  S
Cu391       N399   2.072       .  S
N392        N393   1.321       .  A
N392        C396   1.339       .  A
N393        C394   1.347   1_545  A
C394        C395   1.385       .  A
C394        H397   1.082       .  S
C395        C396   1.379   1_565  A
C395        C736   1.472       .  S
C396        H398   1.082       .  S
N399        N400   1.323       .  A
N399        C403   1.343       .  A
N400        C401   1.344       .  A
C401        C402   1.386       .  A
C401        H404   1.082       .  S
C402        C403   1.386       .  A
C402        C764   1.483       .  S
C403        H405   1.081       .  S
C406        C407   1.398       .  A
C406        C411   1.408       .  A
C406        C862   1.480   1_655  S
C407        C408   1.397   1_556  A
C407        H412   1.083       .  S
C408        C409   1.399       .  A
C408        C753   1.477       .  S
C409        C410   1.406   1_554  A
C409        H413   1.081       .  S
C410        C411   1.417       .  A
C411        H414   1.082       .  S
C415        C416   1.408       .  A
C415        C420   1.395       .  A
C415        C711   1.481       .  S
C416        C417   1.422       .  A
C416        H421   1.077       .  S
C417        C418   1.412       .  A
C418        C419   1.405       .  A
C418        H422   1.052       .  S
C419        C420   1.395       .  A
C419        C739   1.477       .  S
C420        H423   1.086       .  S
N424        N425   1.322       .  A
N424        C428   1.344       .  A
N424       Cu432   2.075       .  S
N425        C426   1.349       .  A
N425       Cu431   2.094       .  S
C426        C427   1.392       .  A
C426        H429   1.081       .  S
C427        C428   1.387       .  A
C427        C708   1.494       .  S
C428        H430   1.082       .  S
Cu431       N434   2.094       .  S
Cu432       N442   2.074       .  S
Cu433       N435   2.085       .  S
Cu433       N441   2.085       .  S
N434        N435   1.324       .  A
N434        C438   1.348       .  A
N435        C436   1.347       .  A
C436        C437   1.386       .  A
C436        H439   1.082       .  S
C437        C438   1.387       .  A
C437        C795   1.488       .  S
C438        H440   1.082       .  S
N441        N442   1.322       .  A
N441        C445   1.347       .  A
N442        C443   1.346       .  A
C443        C444   1.385       .  A
C443        H446   1.082       .  S
C444        C445   1.389       .  A
C444        C697   1.486       .  S
C445        H447   1.081       .  S
N448        N449   1.321       .  A
N448        C452   1.343       .  A
N448       Cu456   2.065       .  S
N449        C450   1.349       .  A
N449       Cu455   2.092       .  S
C450        C451   1.390       .  A
C450        H453   1.082       .  S
C451        C452   1.384       .  A
C451        C680   1.486       .  S
C452        H454   1.081       .  S
Cu455       N458   2.093       .  S
Cu456       N466   2.065   1_545  S
Cu457       N459   2.094   1_565  S
Cu457       N465   2.093       .  S
N458        N459   1.324       .  A
N458        C462   1.346       .  A
N459        C460   1.350   1_545  A
C460        C461   1.389   1_565  A
C460        H463   1.081       .  S
C461        C462   1.387       .  A
C461       C1159   1.492       .  S
C462        H464   1.082       .  S
N465        N466   1.321       .  A
N465        C469   1.349       .  A
N466        C467   1.343       .  A
C467        C468   1.384       .  A
C467        H470   1.082       .  S
C468        C469   1.392       .  A
C468        C694   1.489       .  S
C469        H471   1.081       .  S
N472        N473   1.321       .  A
N472        C476   1.345       .  A
N472       Cu480   2.078       .  S
N473        C474   1.348       .  A
N473       Cu479   2.082       .  S
C474        C475   1.388       .  A
C474        H477   1.081       .  S
C475        C476   1.387       .  A
C475        C652   1.488       .  S
C476        H478   1.082       .  S
Cu479       N482   2.083       .  S
Cu480       N490   2.078       .  S
Cu481       N483   2.092       .  S
Cu481       N489   2.092       .  S
N482        N483   1.323       .  A
N482        C486   1.346       .  A
N483        C484   1.348       .  A
C484        C485   1.389       .  A
C484        H487   1.081       .  S
C485        C486   1.386       .  A
C485        C904   1.489       .  S
C486        H488   1.082       .  S
N489        N490   1.322       .  A
N489        C493   1.348       .  A
N490        C491   1.345       .  A
C491        C492   1.385       .  A
C491        H494   1.082       .  S
C492        C493   1.390       .  A
C492        C669   1.489       .  S
C493        H495   1.081       .  S
N496        N497   1.321       .  A
N496        C500   1.347       .  A
N496       Cu504   2.079       .  S
N497        C498   1.345       .  A
N497       Cu503   2.080       .  S
C498        C499   1.390       .  A
C498        H501   1.082       .  S
C499        C500   1.390       .  A
C499        C641   1.493       .  S
C500        H502   1.081       .  S
Cu503       N506   2.081       .  S
Cu504       N514   2.079   1_455  S
Cu505       N507   2.089   1_655  S
Cu505       N513   2.090       .  S
N506        N507   1.323       .  A
N506        C510   1.346       .  A
N507        C508   1.348       .  A
C508        C509   1.388       .  A
C508        H511   1.082   1_455  S
C509        C510   1.386       .  A
C509        C991   1.488       .  S
C510        H512   1.081       .  S
N513        N514   1.322       .  A
N513        C517   1.348       .  A
N514        C515   1.344       .  A
C515        C516   1.389       .  A
C515        H518   1.081       .  S
C516        C517   1.393       .  A
C516        C666   1.497       .  S
C517        H519   1.080       .  S
C520        C521   1.405       .  A
C520        C525   1.398       .  A
C520        C655   1.485       .  S
C521        C522   1.419       .  A
C521        H526   1.081       .  S
C522        C523   1.405       .  A
C523        C524   1.397       .  A
C523        H527   1.082       .  S
C524        C525   1.399       .  A
C524        C624   1.467       .  S
C525        H528   1.084       .  S
N529        N530   1.319       .  A
N529        C533   1.347       .  A
N529       Cu537   2.066       .  S
N530        C531   1.337       .  A
N530       Cu536   2.053       .  S
C531        C532   1.383       .  A
C531        H534   1.082       .  S
C532        C533   1.389       .  A
C532        C778   1.482       .  S
C533        H535   1.080       .  S
Cu536       N539   2.053       .  S
Cu537       N547   2.068       .  S
Cu538       N540   2.068       .  S
Cu538       N546   2.069       .  S
N539        N540   1.319       .  A
N539        C543   1.341       .  A
N540        C541   1.344       .  A
C541        C542   1.388       .  A
C541        H544   1.082       .  S
C542        C543   1.384       .  A
C542       C1075   1.481       .  S
C543        H545   1.081       .  S
N546        N547   1.323       .  A
N546        C550   1.342       .  A
N547        C548   1.343       .  A
C548        C549   1.385       .  A
C548        H551   1.081       .  S
C549        C550   1.384       .  A
C549        C610   1.480       .  S
C550        H552   1.082       .  S
N553        N554   1.320       .  A
N553        C557   1.343       .  A
N553       Cu561   2.066       .  S
N554        C555   1.341       .  A
N554       Cu560   2.061       .  S
C555        C556   1.385       .  A
C555        H558   1.082       .  S
C556        C557   1.387       .  A
C556        C596   1.481       .  S
C557        H559   1.081       .  S
Cu560       N563   2.062       .  S
Cu561       N571   2.065       .  S
Cu562       N564   2.065       .  S
Cu562       N570   2.066       .  S
N563        N564   1.321       .  A
N563        C567   1.343       .  A
N564        C565   1.343       .  A
C565        C566   1.384       .  A
C565        H568   1.082       .  S
C566        C567   1.384       .  A
C566        C627   1.477   1_455  S
C567        H569   1.081       .  S
N570        N571   1.321       .  A
N570        C574   1.342       .  A
N571        C572   1.342       .  A
C572        C573   1.386       .  A
C572        H575   1.082       .  S
C573        C574   1.386       .  A
C573        C613   1.480       .  S
C574        H576   1.082       .  S
C577        C578   1.406       .  A
C577        C582   1.395       .  A
C577        C683   1.479       .  S
C578        C579   1.423       .  A
C578        H583   1.080       .  S
C579        C580   1.409       .  A
C580        C581   1.398       .  A
C580        H584   1.080       .  S
C581        C582   1.393       .  A
C581        C599   1.468       .  S
C582        H585   1.085       .  S
C586        C587   1.401       .  A
C586        C591   1.408       .  A
C586        C638   1.491       .  S
C587        C588   1.399       .  A
C587        H592   1.083       .  S
C588        C589   1.401       .  A
C588        C722   1.483       .  S
C589        C590   1.410       .  A
C589        H593   1.080       .  S
C590        C591   1.419       .  A
C591        H594   1.080       .  S
C595        C596   1.407       .  A
C595        C600   1.395       .  A
C595        H602   1.082       .  S
C596        C597   1.415       .  A
C597        C598   1.400   1_565  A
C597        N604   1.431       .  S
C598        C599   1.399       .  A
C598        H603   1.084       .  S
C599        C600   1.404   1_545  A
C600        N601   1.431       .  S
N601        O605   1.262       .  A
N601        O606   1.262       .  A
N604        O608   1.262   1_565  A
N604        O607   1.262       .  A
C609        C610   1.404       .  A
C609        C614   1.399       .  A
C609        H616   1.083       .  S
C610        C611   1.413       .  A
C611        C612   1.398       .  A
C611        N618   1.431       .  S
C612        C613   1.404       .  A
C612        H617   1.083       .  S
C613        C614   1.411       .  A
C614        N615   1.432       .  S
N615        O619   1.262       .  A
N615        O620   1.262       .  A
N618        O622   1.262       .  A
N618        O621   1.262       .  A
C623        C624   1.397       .  A
C623        C628   1.398       .  A
C623        H630   1.084       .  S
C624        C625   1.405       .  A
C625        C626   1.398       .  A
C625        N632   1.430       .  S
C626        C627   1.405       .  A
C626        H631   1.084       .  S
C627        C628   1.415       .  A
C628        N629   1.431       .  S
N629        O633   1.262   1_655  A
N629        O634   1.262       .  A
N632        O636   1.262       .  A
N632        O635   1.262       .  A
C637        C638   1.404       .  A
C637        C642   1.405       .  A
C637        H644   1.084       .  S
C638        C639   1.413       .  A
C639        C640   1.402       .  A
C639        N646   1.432       .  S
C640        C641   1.406       .  A
C640        H645   1.082       .  S
C641        C642   1.416       .  A
C642        N643   1.430       .  S
N643        O647   1.262       .  A
N643        O648   1.262       .  A
N646        O650   1.262       .  A
N646        O649   1.262       .  A
C651        C652   1.405       .  A
C651        C656   1.400       .  A
C651        H658   1.083       .  S
C652        C653   1.415       .  A
C653        C654   1.406       .  A
C653        N660   1.429       .  S
C654        C655   1.403       .  A
C654        H659   1.084       .  S
C655        C656   1.410       .  A
C656        N657   1.429       .  S
N657        O661   1.262       .  A
N657        O662   1.262       .  A
N660        O664   1.262       .  A
N660        O663   1.262       .  A
C665        C666   1.408       .  A
C665        C670   1.403       .  A
C665        H672   1.082       .  S
C666        C667   1.416       .  A
C667        C668   1.405       .  A
C667        N674   1.430       .  S
C668        C669   1.405       .  A
C668        H673   1.083       .  S
C669        C670   1.411       .  A
C670        N671   1.430       .  S
N671        O675   1.262       .  A
N671        O676   1.262       .  A
N674        O678   1.262       .  A
N674        O677   1.262       .  A
C679        C680   1.406       .  A
C679        C684   1.404       .  A
C679        H686   1.084       .  S
C680        C681   1.415       .  A
C681        C682   1.401       .  A
C681        N688   1.430       .  S
C682        C683   1.400       .  A
C682        H687   1.084       .  S
C683        C684   1.408       .  A
C684        N685   1.429       .  S
N685        O689   1.262       .  A
N685        O690   1.262       .  A
N688        O692   1.262       .  A
N688        O691   1.262   1_545  A
C693        C694   1.406       .  A
C693        C698   1.402       .  A
C693        H700   1.083       .  S
C694        C695   1.413       .  A
C695        C696   1.405       .  A
C695        N702   1.431       .  S
C696        C697   1.405       .  A
C696        H701   1.084       .  S
C697        C698   1.411       .  A
C698        N699   1.430       .  S
N699        O703   1.262       .  A
N699        O704   1.262       .  A
N702        O706   1.262       .  A
N702        O705   1.262       .  A
C707        C708   1.408       .  A
C707        C712   1.401       .  A
C707        H714   1.083       .  S
C708        C709   1.417       .  A
C709        C710   1.406       .  A
C709        N716   1.430       .  S
C710        C711   1.400       .  A
C710        H715   1.084       .  S
C711        C712   1.408       .  A
C712        N713   1.430       .  S
N713        O717   1.262       .  A
N713        O718   1.262       .  A
N716        O720   1.262       .  A
N716        O719   1.262       .  A
C721        C722   1.404   1_655  A
C721        C726   1.399       .  A
C721        H728   1.084       .  S
C722        C723   1.413       .  A
C723        C724   1.398   1_455  A
C723        N730   1.431       .  S
C724        C725   1.402       .  A
C724        H729   1.084       .  S
C725        C726   1.412       .  A
C726        N727   1.430       .  S
N727        O731   1.262       .  A
N727        O732   1.262       .  A
N730        O734   1.262       .  A
N730        O733   1.262       .  A
C735        C736   1.402       .  A
C735        C740   1.400       .  A
C735        H742   1.085       .  S
C736        C737   1.411       .  A
C737        C738   1.395       .  A
C737        N744   1.432       .  S
C738        C739   1.401       .  A
C738        H743   1.086       .  S
C739        C740   1.412       .  A
C740        N741   1.429       .  S
N741        O745   1.262       .  A
N741        O746   1.262       .  A
N744        O748   1.262       .  A
N744        O747   1.262       .  A
C749        C750   1.403       .  A
C749        C754   1.401       .  A
C749        H756   1.084       .  S
C750        C751   1.409       .  A
C751        C752   1.392       .  A
C751        N758   1.431       .  S
C752        C753   1.402       .  A
C752        H757   1.084       .  S
C753        C754   1.412       .  A
C754        N755   1.430       .  S
N755        O759   1.262   1_655  A
N755        O760   1.262       .  A
N758        O762   1.262       .  A
N758        O761   1.262       .  A
C763        C764   1.405       .  A
C763        C768   1.401       .  A
C763        H770   1.083       .  S
C764        C765   1.412       .  A
C765        C766   1.398       .  A
C765        N772   1.432       .  S
C766        C767   1.403       .  A
C766        H771   1.083       .  S
C767        C768   1.412       .  A
C768        N769   1.431       .  S
N769        O773   1.262       .  A
N769        O774   1.262       .  A
N772        O776   1.262       .  A
N772        O775   1.262       .  A
C777        C778   1.405       .  A
C777        C782   1.393       .  A
C777        H784   1.083       .  S
C778        C779   1.413       .  A
C779        C780   1.400       .  A
C779        N786   1.428       .  S
C780        C781   1.404       .  A
C780        H785   1.084       .  S
C781        C782   1.408       .  A
C782        N783   1.430   1_556  S
N783        O787   1.262       .  A
N783        O788   1.262       .  A
N786        O790   1.262       .  A
N786        O789   1.262       .  A
C791        C792   1.405       .  A
C791        C796   1.403       .  A
C791        H798   1.084       .  S
C792        C793   1.413       .  A
C793        C794   1.405       .  A
C793        N800   1.430       .  S
C794        C795   1.405       .  A
C794        H799   1.084       .  S
C795        C796   1.412       .  A
C796        N797   1.430       .  S
N797        O801   1.262       .  A
N797        O802   1.262       .  A
N800        O804   1.262       .  A
N800        O803   1.262       .  A
C805        C806   1.401       .  A
C805        C810   1.404       .  A
C805        H812   1.084   1_545  S
C806        C807   1.406       .  A
C807        C808   1.402       .  A
C807        N814   1.429       .  S
C808        C809   1.406       .  A
C808        H813   1.083       .  S
C809        C810   1.416       .  A
C810        N811   1.430       .  S
N811        O815   1.262   1_545  A
N811        O816   1.262   1_545  A
N814        O818   1.262       .  A
N814        O817   1.262       .  A
C819        C820   1.407       .  A
C819        C824   1.404       .  A
C819        H826   1.083       .  S
C820        C821   1.414       .  A
C821        C822   1.401       .  A
C821        N828   1.430       .  S
C822        C823   1.404       .  A
C822        H827   1.084       .  S
C823        C824   1.413       .  A
C824        N825   1.431       .  S
N825        O829   1.262       .  A
N825        O830   1.262       .  A
N828        O832   1.262       .  A
N828        O831   1.262       .  A
C833        C834   1.406       .  A
C833        C838   1.401       .  A
C833        H840   1.083       .  S
C834        C835   1.413       .  A
C835        C836   1.402       .  A
C835        N842   1.430       .  S
C836        C837   1.402       .  A
C836        H841   1.084       .  S
C837        C838   1.408       .  A
C838        N839   1.429       .  S
N839        O843   1.262       .  A
N839        O844   1.262       .  A
N842        O846   1.262       .  A
N842        O845   1.262       .  A
C847        C848   1.405       .  A
C847        C852   1.404       .  A
C847        H854   1.083       .  S
C848        C849   1.413       .  A
C849        C850   1.403       .  A
C849        N856   1.431       .  S
C850        C851   1.406       .  A
C850        H855   1.083       .  S
C851        C852   1.414       .  A
C852        N853   1.431       .  S
N853        O857   1.262       .  A
N853        O858   1.262       .  A
N856        O860   1.262       .  A
N856        O859   1.262       .  A
C861        C862   1.400       .  A
C861        C866   1.402       .  A
C861        H868   1.084       .  S
C862        C863   1.410   1_455  A
C863        C864   1.403   1_655  A
C863        N870   1.429       .  S
C864        C865   1.405       .  A
C864        H869   1.084       .  S
C865        C866   1.414       .  A
C866        N867   1.430       .  S
N867        O871   1.262       .  A
N867        O872   1.262       .  A
N870        O874   1.262       .  A
N870        O873   1.262       .  A
C875        C876   1.409       .  A
C875        C880   1.405       .  A
C875        H882   1.083       .  S
C876        C877   1.416       .  A
C877        C878   1.402       .  A
C877        N884   1.430       .  S
C878        C879   1.402       .  A
C878        H883   1.084       .  S
C879        C880   1.408       .  A
C880        N881   1.428       .  S
N881        O885   1.262       .  A
N881        O886   1.262       .  A
N884        O888   1.262       .  A
N884        O887   1.262       .  A
C889        C890   1.407       .  A
C889        C894   1.403       .  A
C889        H896   1.083       .  S
C890        C891   1.415       .  A
C891        C892   1.404       .  A
C891        N898   1.430       .  S
C892        C893   1.404       .  A
C892        H897   1.083       .  S
C893        C894   1.412       .  A
C894        N895   1.430       .  S
N895        O899   1.262       .  A
N895        O900   1.262       .  A
N898        O902   1.262       .  A
N898        O901   1.262       .  A
C903        C904   1.406       .  A
C903        C908   1.404       .  A
C903        H910   1.083       .  S
C904        C905   1.413       .  A
C905        C906   1.403       .  A
C905        N912   1.430       .  S
C906        C907   1.404       .  A
C906        H911   1.084       .  S
C907        C908   1.411       .  A
C908        N909   1.430       .  S
N909        O913   1.262       .  A
N909        O914   1.262       .  A
N912        O916   1.262       .  A
N912        O915   1.262       .  A
C917        C918   1.405       .  A
C917        C922   1.404       .  A
C917        H924   1.084       .  S
C918        C919   1.414       .  A
C919        C920   1.402       .  A
C919        N926   1.431       .  S
C920        C921   1.404       .  A
C920        H925   1.084       .  S
C921        C922   1.412       .  A
C922        N923   1.429       .  S
N923        O927   1.262       .  A
N923        O928   1.262       .  A
N926        O930   1.262       .  A
N926        O929   1.262       .  A
C931        C932   1.403       .  A
C931        C936   1.396       .  A
C931        H938   1.084       .  S
C932        C933   1.414       .  A
C933        C934   1.404       .  A
C933        N940   1.431       .  S
C934        C935   1.405       .  A
C934        H939   1.083       .  S
C935        C936   1.414       .  A
C936        N937   1.431       .  S
N937        O941   1.262       .  A
N937        O942   1.262       .  A
N940        O944   1.262       .  A
N940        O943   1.262       .  A
C945        C946   1.403       .  A
C945        C950   1.400       .  A
C945        H952   1.084       .  S
C946        C947   1.411       .  A
C947        C948   1.396       .  A
C947        N954   1.432       .  S
C948        C949   1.404       .  A
C948        H953   1.083       .  S
C949        C950   1.411       .  A
C950        N951   1.429       .  S
N951        O955   1.262       .  A
N951        O956   1.262       .  A
N954        O958   1.262       .  A
N954        O957   1.262       .  A
C959        C960   1.406       .  A
C959        C964   1.401       .  A
C959        H966   1.083       .  S
C960        C961   1.411       .  A
C961        C962   1.399       .  A
C961        N968   1.431       .  S
C962        C963   1.405       .  A
C962        H967   1.083       .  S
C963        C964   1.412       .  A
C964        N965   1.429       .  S
N965        O969   1.262       .  A
N965        O970   1.262       .  A
N968        O972   1.262       .  A
N968        O971   1.262       .  A
C973        C974   1.403       .  A
C973        C978   1.398       .  A
C973        H980   1.084       .  S
C974        C975   1.409       .  A
C975        C976   1.398       .  A
C975        N982   1.429       .  S
C976        C977   1.403       .  A
C976        H981   1.084   1_545  S
C977        C978   1.410       .  A
C978        N979   1.431       .  S
N979        O983   1.262   1_554  A
N979        O984   1.262   1_554  A
N982        O986   1.262       .  A
N982        O985   1.262       .  A
C987        C988   1.403       .  A
C987        C992   1.402       .  A
C987        H994   1.084       .  S
C988        C989   1.412       .  A
C989        C990   1.404       .  A
C989        N996   1.430       .  S
C990        C991   1.405       .  A
C990        H995   1.083       .  S
C991        C992   1.414       .  A
C992        N993   1.430   1_455  S
N993        O997   1.262       .  A
N993        O998   1.262   1_655  A
N996       O1000   1.262       .  A
N996        O999   1.262       .  A
C1001      C1002   1.408       .  A
C1001      C1006   1.402       .  A
C1001      H1008   1.083       .  S
C1002      C1003   1.417       .  A
C1003      C1004   1.406       .  A
C1003      N1010   1.428       .  S
C1004      C1005   1.403       .  A
C1004      H1009   1.084   1_655  S
C1005      C1006   1.408       .  A
C1006      N1007   1.429       .  S
N1007      O1011   1.262       .  A
N1007      O1012   1.262       .  A
N1010      O1014   1.262       .  A
N1010      O1013   1.262       .  A
C1015      C1016   1.404       .  A
C1015      C1020   1.406       .  A
C1015      H1022   1.084       .  S
C1016      C1017   1.413       .  A
C1017      C1018   1.402       .  A
C1017      N1024   1.432       .  S
C1018      C1019   1.405       .  A
C1018      H1023   1.083       .  S
C1019      C1020   1.415       .  A
C1020      N1021   1.432       .  S
N1021      O1025   1.262       .  A
N1021      O1026   1.262       .  A
N1024      O1028   1.262       .  A
N1024      O1027   1.262       .  A
C1029      C1030   1.401       .  A
C1029      C1034   1.403       .  A
C1029      H1036   1.083       .  S
C1030      C1031   1.407       .  A
C1031      C1032   1.403       .  A
C1031      N1038   1.429       .  S
C1032      C1033   1.407       .  A
C1032      H1037   1.083       .  S
C1033      C1034   1.416       .  A
C1034      N1035   1.429       .  S
N1035      O1039   1.262       .  A
N1035      O1040   1.262       .  A
N1038      O1042   1.262       .  A
N1038      O1041   1.262       .  A
C1043      C1044   1.400       .  A
C1043      C1048   1.402       .  A
C1043      H1050   1.084       .  S
C1044      C1045   1.405       .  A
C1045      C1046   1.395       .  A
C1045      N1052   1.430       .  S
C1046      C1047   1.405       .  A
C1046      H1051   1.083       .  S
C1047      C1048   1.413       .  A
C1048      N1049   1.429       .  S
N1049      O1053   1.262       .  A
N1049      O1054   1.262       .  A
N1052      O1056   1.262       .  A
N1052      O1055   1.262       .  A
C1057      C1058   1.402       .  A
C1057      C1062   1.401       .  A
C1057      H1064   1.084       .  S
C1058      C1059   1.408       .  A
C1059      C1060   1.403       .  A
C1059      N1066   1.429   1_554  S
C1060      C1061   1.407       .  A
C1060      H1065   1.083       .  S
C1061      C1062   1.414       .  A
C1062      N1063   1.429       .  S
N1063      O1067   1.262       .  A
N1063      O1068   1.262       .  A
N1066      O1070   1.262       .  A
N1066      O1069   1.262       .  A
C1071      C1072   1.401       .  A
C1071      C1076   1.399       .  A
C1071      H1078   1.084       .  S
C1072      C1073   1.409       .  A
C1073      C1074   1.399       .  A
C1073      N1080   1.429   1_455  S
C1074      C1075   1.405       .  A
C1074      H1079   1.083       .  S
C1075      C1076   1.414       .  A
C1076      N1077   1.431       .  S
N1077      O1081   1.262       .  A
N1077      O1082   1.262       .  A
N1080      O1084   1.262   1_655  A
N1080      O1083   1.262       .  A
C1085      C1086   1.405       .  A
C1085      C1090   1.400       .  A
C1085      H1092   1.084       .  S
C1086      C1087   1.413       .  A
C1087      C1088   1.406       .  A
C1087      N1094   1.429   1_554  S
C1088      C1089   1.406       .  A
C1088      H1093   1.084       .  S
C1089      C1090   1.412       .  A
C1090      N1091   1.430       .  S
N1091      O1095   1.262       .  A
N1091      O1096   1.262       .  A
N1094      O1098   1.262       .  A
N1094      O1097   1.262   1_556  A
C1099      C1100   1.408       .  A
C1099      C1104   1.406       .  A
C1099      H1106   1.083       .  S
C1100      C1101   1.414       .  A
C1101      C1102   1.401       .  A
C1101      N1108   1.430       .  S
C1102      C1103   1.403       .  A
C1102      H1107   1.084       .  S
C1103      C1104   1.409       .  A
C1104      N1105   1.428   1_556  S
N1105      O1109   1.262       .  A
N1105      O1110   1.262       .  A
N1108      O1112   1.262       .  A
N1108      O1111   1.262       .  A
C1113      C1114   1.411       .  A
C1113      C1118   1.399       .  A
C1113      H1120   1.081       .  S
C1114      C1115   1.420       .  A
C1115      C1116   1.406       .  A
C1115      N1122   1.429   1_556  S
C1116      C1117   1.399       .  A
C1116      H1121   1.084   1_556  S
C1117      C1118   1.403       .  A
C1118      N1119   1.429       .  S
N1119      O1123   1.262       .  A
N1119      O1124   1.262       .  A
N1122      O1126   1.262       .  A
N1122      O1125   1.262       .  A
C1127      C1128   1.405       .  A
C1127      C1132   1.403       .  A
C1127      H1134   1.083       .  S
C1128      C1129   1.413       .  A
C1129      C1130   1.403       .  A
C1129      N1136   1.430       .  S
C1130      C1131   1.406       .  A
C1130      H1135   1.083       .  S
C1131      C1132   1.413       .  A
C1132      N1133   1.430       .  S
N1133      O1137   1.262       .  A
N1133      O1138   1.262       .  A
N1136      O1140   1.262       .  A
N1136      O1139   1.262       .  A
C1141      C1142   1.405       .  A
C1141      C1146   1.400       .  A
C1141      H1148   1.084       .  S
C1142      C1143   1.412       .  A
C1143      C1144   1.407       .  A
C1143      N1150   1.431       .  S
C1144      C1145   1.406       .  A
C1144      H1149   1.083       .  S
C1145      C1146   1.412       .  A
C1146      N1147   1.430       .  S
N1147      O1151   1.262       .  A
N1147      O1152   1.262       .  A
N1150      O1154   1.262       .  A
N1150      O1153   1.262       .  A
C1155      C1156   1.405       .  A
C1155      C1160   1.407       .  A
C1155      H1162   1.084       .  S
C1156      C1157   1.410       .  A
C1157      C1158   1.403       .  A
C1157      N1164   1.429       .  S
C1158      C1159   1.406       .  A
C1158      H1163   1.083   1_545  S
C1159      C1160   1.415       .  A
C1160      N1161   1.430       .  S
N1161      O1165   1.262       .  A
N1161      O1166   1.262       .  A
N1164      O1168   1.262   1_545  A
N1164      O1167   1.262       .  A
C1169      C1170   1.403       .  A
C1169      C1174   1.402       .  A
C1169      H1176   1.084       .  S
C1170      C1171   1.408       .  A
C1171      C1172   1.402       .  A
C1171      N1178   1.428       .  S
C1172      C1173   1.406       .  A
C1172      H1177   1.084       .  S
C1173      C1174   1.412       .  A
C1174      N1175   1.429       .  S
N1175      O1179   1.262       .  A
N1175      O1180   1.262       .  A
N1178      O1182   1.262       .  A
N1178      O1181   1.262       .  A
C1183      C1184   1.399       .  A
C1183      C1188   1.393       .  A
C1183      H1190   1.084       .  S
C1184      C1185   1.407       .  A
C1185      C1186   1.403       .  A
C1185      N1192   1.428       .  S
C1186      C1187   1.406       .  A
C1186      H1191   1.083       .  S
C1187      C1188   1.414       .  A
C1188      N1189   1.432       .  S
N1189      O1193   1.262       .  A
N1189      O1194   1.263       .  A
N1192      O1196   1.262       .  A
N1192      O1195   1.262       .  A
C1197      C1198   1.403       .  A
C1197      C1202   1.403       .  A
C1197      H1204   1.084   1_556  S
C1198      C1199   1.411       .  A
C1199      C1200   1.404       .  A
C1199      N1206   1.429       .  S
C1200      C1201   1.406       .  A
C1200      H1205   1.083       .  S
C1201      C1202   1.415       .  A
C1202      N1203   1.430       .  S
N1203      O1207   1.262       .  A
N1203      O1208   1.262       .  A
N1206      O1210   1.262       .  A
N1206      O1209   1.262       .  A
C1211      C1212   1.404       .  A
C1211      C1216   1.405       .  A
C1211      H1218   1.084       .  S
C1212      C1213   1.410       .  A
C1213      C1214   1.402       .  A
C1213      N1220   1.429   1_554  S
C1214      C1215   1.406       .  A
C1214      H1219   1.083       .  S
C1215      C1216   1.415       .  A
C1216      N1217   1.429       .  S
N1217      O1221   1.262       .  A
N1217      O1222   1.262       .  A
N1220      O1224   1.262       .  A
N1220      O1223   1.262       .  A
