geometry optimzed in LAMMPS
_audit_creation_date              2020-11-30 
_audit_creation_method            'lammps2cif' 
_symmetry_space_group_name_H-M    'P1' 
_symmetry_Int_Tables_number       1 
_symmetry_cell_setting            triclinic 
loop_ 
_symmetry_equiv_pos_as_xyz 
  x,y,z 
_cell_length_a                    81.6977750414048 
_cell_length_b                    81.58533800409876 
_cell_length_c                    81.73035412831447 
_cell_angle_alpha                 89.97892164909314 
_cell_angle_beta                  89.99091060145311 
_cell_angle_gamma                 89.96413084564769 
loop_ 
_atom_site_label 
_atom_site_type_symbol 
_atom_site_fract_x 
_atom_site_fract_y 
_atom_site_fract_z 
_atom_site_charge 
N1          N  0.35347661  0.34229242  0.30776327    -0.27570
N2          N  0.34247446  0.35417261  0.30799102    -0.35430
C3          C  0.34535647  0.36439141  0.29540747     0.00770
C4          C  0.35881967  0.35862433  0.28690082     0.06790
C5          C  0.36367043  0.34461571  0.29506935    -0.06310
H6          H  0.33814109  0.37516579  0.29264914     0.07460
H7          H  0.37381206  0.33665141  0.29201760     0.08660
Cu8        Cu  0.32392147  0.35568215  0.32522601     0.44170
Cu9        Cu  0.35409659  0.32344299  0.32460106     0.41990
Cu10       Cu  0.32243649  0.32318453  0.35556902     0.43880
N11         N  0.30594758  0.35377016  0.34302639    -0.34960
N12         N  0.30527473  0.34182780  0.35395108    -0.29210
C13         C  0.29192440  0.34392226  0.36335565    -0.05310
C14         C  0.28385376  0.35786343  0.35810018     0.06900
C15         C  0.29308608  0.36381558  0.34522835     0.00700
H16         H  0.28838859  0.33588378  0.37327302     0.08350
H17         H  0.29058596  0.37456391  0.33788552     0.07430
N18         N  0.34120282  0.30612639  0.35444898    -0.36410
N19         N  0.35266492  0.30620277  0.34303143    -0.28590
C20         C  0.36314618  0.29382173  0.34580810    -0.03830
C21         C  0.35806502  0.28559741  0.35967486     0.04780
C22         C  0.34411576  0.29368947  0.36485147     0.02880
H23         H  0.37382393  0.29121411  0.33842285     0.07980
H24         H  0.33673016  0.29089363  0.37547801     0.06820
N25         N  0.14145704  0.34121566  0.18765541    -0.27570
N26         N  0.15304970  0.35250885  0.18775152    -0.35430
C27         C  0.15038808  0.36284377  0.20027754     0.00770
C28         C  0.13643849  0.35779934  0.20842011     0.06790
C29         C  0.13109096  0.34405333  0.20011320    -0.06310
H30         H  0.15797322  0.37332582  0.20312234     0.07460
H31         H  0.12039163  0.33672613  0.20280384     0.08660
Cu32       Cu  0.17176842  0.35352253  0.17072049     0.44170
Cu33       Cu  0.14011401  0.32267122  0.17045652     0.41990
Cu34       Cu  0.17227189  0.32170114  0.13985683     0.43880
N35         N  0.18931359  0.35188779  0.15252850    -0.34960
N36         N  0.18964801  0.34017829  0.14135298    -0.29210
C37         C  0.20257145  0.34261852  0.13144593    -0.05310
C38         C  0.21068014  0.35656471  0.13662584     0.06900
C39         C  0.20194377  0.36213046  0.14999704     0.00700
H40         H  0.20569002  0.33491888  0.12113145     0.08350
H41         H  0.20452736  0.37284578  0.15734659     0.07430
N42         N  0.15317248  0.30497739  0.14085029    -0.36410
N43         N  0.14143815  0.30538990  0.15198837    -0.28590
C44         C  0.13093693  0.29301997  0.14921634    -0.03830
C45         C  0.13633582  0.28440587  0.13569709     0.04780
C46         C  0.15045094  0.29230725  0.13068973     0.02880
H47         H  0.12017360  0.29052303  0.15651249     0.07980
H48         H  0.15815991  0.28914187  0.12040120     0.06820
N49         N  0.30542838  0.15210833  0.14079065    -0.27570
N50         N  0.30560441  0.14044549  0.15202810    -0.35430
C51         C  0.29326548  0.12995358  0.14905981     0.00770
C52         C  0.28498297  0.13527762  0.13528370     0.06790
C53         C  0.29300948  0.14934659  0.13036373    -0.06310
H54         H  0.29065091  0.11916799  0.15630373     0.07460
H55         H  0.29014767  0.15696277  0.11990971     0.08660
Cu56       Cu  0.32283272  0.13908708  0.17063246     0.44170
Cu57       Cu  0.32220480  0.17107231  0.13983238     0.41990
Cu58       Cu  0.35425398  0.17035221  0.17026150     0.43880
N59         N  0.34158459  0.14042604  0.18769997    -0.34960
N60         N  0.35305430  0.15185015  0.18751916    -0.29210
C61         C  0.36334922  0.14934004  0.20010367    -0.05310
C62         C  0.35811037  0.13567016  0.20860086     0.06900
C63         C  0.34429229  0.13031275  0.20041404     0.00700
H64         H  0.37388724  0.15689200  0.20280189     0.08350
H65         H  0.33677289  0.11982606  0.20342220     0.07430
N66         N  0.35249175  0.18798418  0.15216351    -0.36410
N67         N  0.34065816  0.18837620  0.14114343    -0.28590
C68         C  0.34293307  0.20136016  0.13127063    -0.03830
C69         C  0.35689790  0.20946615  0.13632088     0.04780
C70         C  0.36265964  0.20066324  0.14957511     0.02880
H71         H  0.33508878  0.20453364  0.12108710     0.07980
H72         H  0.37344094  0.20324071  0.15681112     0.06820
N73         N  0.18827682  0.15172383  0.35366493    -0.27570
N74         N  0.18822666  0.14011258  0.34237902    -0.35430
C75         C  0.20073207  0.12978387  0.34522163     0.00770
C76         C  0.20905271  0.13517452  0.35892887     0.06790
C77         C  0.20084867  0.14911338  0.36396876    -0.06310
H78         H  0.20349236  0.11910820  0.33787339     0.07460
H79         H  0.20367858  0.15671690  0.37443248     0.08660
Cu80       Cu  0.17119280  0.13865110  0.32364803     0.44170
Cu81       Cu  0.17109351  0.17037873  0.35480433     0.41990
Cu82       Cu  0.14038240  0.17041015  0.32302136     0.43880
N83         N  0.15288846  0.14010606  0.30615785    -0.34960
N84         N  0.14165498  0.15177109  0.30598547    -0.29210
C85         C  0.13151630  0.14930792  0.29329052    -0.05310
C86         C  0.13662335  0.13542863  0.28506733     0.06900
C87         C  0.15020344  0.12988555  0.29353048     0.00700
H88         H  0.12115890  0.15703091  0.29034486     0.08350
H89         H  0.15754415  0.11919199  0.29079395     0.07430
N90         N  0.14118303  0.18747517  0.34165059    -0.36410
N91         N  0.15233628  0.18742112  0.35336422    -0.28590
C92         C  0.14917777  0.19976377  0.36378968    -0.03830
C93         C  0.13539708  0.20795314  0.35832084     0.04780
C94         C  0.13065827  0.19986838  0.34425403     0.02880
H95         H  0.15631954  0.20246619  0.37460067     0.07980
H96         H  0.12021088  0.20260692  0.33659301     0.06820
N97         N  0.15547166  0.64110128  0.18918713    -0.27570
N98         N  0.14393001  0.65245766  0.18887909    -0.35430
C99         C  0.13387440  0.65025192  0.20169444     0.00770
C100        C  0.13937716  0.63686414  0.21046135     0.06790
C101        C  0.15307529  0.63133957  0.20221217    -0.06310
H102        H  0.12330452  0.65779206  0.20434061     0.07460
H103        H  0.16070155  0.62096292  0.20535972     0.08660
Cu104      Cu  0.14220983  0.67035474  0.17109431     0.44170
Cu105      Cu  0.17385603  0.63932045  0.17190756     0.41990
Cu106      Cu  0.17280713  0.66962541  0.13939696     0.43880
N107        N  0.14299509  0.68702445  0.15209537    -0.34960
N108        N  0.15417623  0.68677088  0.14041352    -0.29210
C109        C  0.15126224  0.69914295  0.12993555    -0.05310
C110        C  0.13759499  0.70755072  0.13534116     0.06900
C111        C  0.13267032  0.69955542  0.14940858     0.00700
H112        H  0.15855686  0.70178956  0.11920866     0.08350
H113        H  0.12233350  0.70256106  0.15712025     0.07430
N114        N  0.19028187  0.65136115  0.14123439    -0.36410
N115        N  0.19074170  0.64035731  0.15310562    -0.28590
C116        C  0.20353964  0.63028736  0.15064531    -0.03830
C117        C  0.21144832  0.63520389  0.13653054     0.04780
C118        C  0.20273912  0.64857664  0.13087875     0.02880
H119        H  0.20671242  0.62006562  0.15846370     0.07980
H120        H  0.20518986  0.65572855  0.12000412     0.06820
N121        N  0.63917111  0.15157420  0.18697899    -0.27570
N122        N  0.65090628  0.14041118  0.18718808    -0.35430
C123        C  0.64792671  0.12967759  0.19931709     0.00770
C124        C  0.63363804  0.13433802  0.20710136     0.06790
C125        C  0.62842760  0.14827532  0.19899592    -0.06310
H126        H  0.65550970  0.11916807  0.20210934     0.07460
H127        H  0.61751632  0.15537454  0.20146658     0.08660
Cu128      Cu  0.67013162  0.13998208  0.17068417     0.44170
Cu129      Cu  0.63797891  0.17047326  0.17008393     0.41990
Cu130      Cu  0.66964692  0.17131124  0.13918643     0.43880
N131        N  0.68751944  0.14175628  0.15233557    -0.34960
N132        N  0.68718248  0.15300414  0.14068715    -0.29210
C133        C  0.69990967  0.15057312  0.13054247    -0.05310
C134        C  0.70869949  0.13721377  0.13613948     0.06900
C135        C  0.70052309  0.13192590  0.14997366     0.00700
H136        H  0.70256908  0.15802493  0.11991976     0.08350
H137        H  0.70366576  0.12160473  0.15767277     0.07430
N138        N  0.65117876  0.18866013  0.14082714    -0.36410
N139        N  0.63953002  0.18825587  0.15205054    -0.28590
C140        C  0.62950929  0.20114810  0.14986435    -0.03830
C141        C  0.63518492  0.21013538  0.13669085     0.04780
C142        C  0.64893631  0.20188209  0.13124590     0.02880
H143        H  0.61896306  0.20383067  0.15740990     0.07980
H144        H  0.65673917  0.20520467  0.12107827     0.06820
N145        N  0.18939344  0.85321257  0.34238656    -0.27570
N146        N  0.18931938  0.84180772  0.35387705    -0.35430
C147        C  0.20205115  0.84425953  0.36399646     0.00770
C148        C  0.21055259  0.85786730  0.35860833     0.06790
C149        C  0.20220791  0.86324861  0.34488501    -0.06310
H150        H  0.20485900  0.83669743  0.37450424     0.07460
H151        H  0.20515938  0.87371502  0.33731178     0.08660
Cu152      Cu  0.17200535  0.82340421  0.35526087     0.44170
Cu153      Cu  0.17195495  0.85457717  0.32397591     0.41990
Cu154      Cu  0.14151131  0.82208736  0.32321028     0.43880
N155        N  0.15399832  0.80569150  0.35375396    -0.34960
N156        N  0.14303067  0.80495691  0.34188602    -0.29210
C157        C  0.13328183  0.79191682  0.34441750    -0.05310
C158        C  0.13834545  0.78418296  0.35860414     0.06900
C159        C  0.15147708  0.79323767  0.36420804     0.00700
H160        H  0.12312922  0.78849392  0.33664259     0.08350
H161        H  0.15870065  0.79096450  0.37506746     0.07430
N162        N  0.14203489  0.84139728  0.30672376    -0.36410
N163        N  0.15305366  0.85326343  0.30706100    -0.28590
C164        C  0.14973309  0.86402246  0.29503998    -0.03830
C165        C  0.13597968  0.85866244  0.28675626     0.04780
C166        C  0.13142669  0.84428435  0.29446920     0.02880
H167        H  0.15676687  0.87498515  0.29260424     0.07980
H168        H  0.12107723  0.83656369  0.29152872     0.06820
N169        N  0.68851629  0.34346938  0.35271954    -0.27570
N170        N  0.68821068  0.35520546  0.34154992    -0.35430
C171        C  0.70083570  0.36546110  0.34413854     0.00770
C172        C  0.70950555  0.35993014  0.35757857     0.06790
C173        C  0.70136040  0.34597243  0.36271745    -0.06310
H174        H  0.70343829  0.37618947  0.33680574     0.07460
H175        H  0.70448639  0.33821960  0.37299403     0.08660
Cu176      Cu  0.67062849  0.35697829  0.32334137     0.44170
Cu177      Cu  0.67144867  0.32457881  0.35396399     0.41990
Cu178      Cu  0.63958551  0.32549813  0.32326477     0.43880
N179        N  0.65158109  0.35614188  0.30660363    -0.34960
N180        N  0.64023607  0.34459632  0.30660647    -0.29210
C181        C  0.62955439  0.34756124  0.29445102    -0.05310
C182        C  0.63440405  0.36166485  0.28643116     0.06900
C183        C  0.64841642  0.36678616  0.29443359     0.00700
H184        H  0.61898374  0.34005373  0.29175745     0.08350
H185        H  0.65571973  0.37750197  0.29171111     0.07430
N186        N  0.64129177  0.30758186  0.34111900    -0.36410
N187        N  0.65292848  0.30714728  0.35235360    -0.28590
C188        C  0.65052318  0.29399250  0.36201004    -0.03830
C189        C  0.63670896  0.28580992  0.35656778     0.04780
C190        C  0.63117718  0.29477568  0.34332257     0.02880
H191        H  0.65822529  0.29068826  0.37226007     0.07980
H192        H  0.62057084  0.29222112  0.33582513     0.06820
N193        N  0.35309166  0.34121102  0.68759118    -0.27570
N194        N  0.34196686  0.35297966  0.68732239    -0.35430
C195        C  0.34444407  0.36303617  0.70010602     0.00770
C196        C  0.35780268  0.35732832  0.70878490     0.06790
C197        C  0.36299560  0.34348724  0.70052288    -0.06310
H198        H  0.33717771  0.37380809  0.70273310     0.07460
H199        H  0.37325288  0.33568244  0.70360099     0.08660
Cu200      Cu  0.32420640  0.35506695  0.66941030     0.44170
Cu201      Cu  0.35433941  0.32265576  0.67037348     0.41990
Cu202      Cu  0.32366617  0.32327651  0.63854108     0.43880
N203        N  0.30783518  0.35439610  0.65012381    -0.34960
N204        N  0.30757884  0.34268894  0.63895451    -0.29210
C205        C  0.29542580  0.34566325  0.62829958    -0.05310
C206        C  0.28771186  0.35995886  0.63298970     0.06900
C207        C  0.29586394  0.36519824  0.64684775     0.00700
H208        H  0.29243505  0.33794497  0.61796466     0.08350
H209        H  0.29321728  0.37595102  0.65412495     0.07430
N210        N  0.34142867  0.30548325  0.64041706    -0.36410
N211        N  0.35269071  0.30526216  0.65202025    -0.28590
C212        C  0.36243159  0.29219409  0.64976131    -0.03830
C213        C  0.35699690  0.28384732  0.63608489     0.04780
C214        C  0.34367767  0.29259034  0.63044623     0.02880
H215        H  0.37271539  0.28906081  0.65749162     0.07980
H216        H  0.33619480  0.28985875  0.61987515     0.06820
N217        N  0.31041891  0.63712718  0.34166547    -0.27570
N218        N  0.31105933  0.64826163  0.35338681    -0.35430
C219        C  0.29847442  0.64598577  0.36369836     0.00770
C220        C  0.28943259  0.63281151  0.35817812     0.06790
C221        C  0.29733024  0.62744961  0.34418984    -0.06310
H222        H  0.29600812  0.65352269  0.37430372     0.07460
H223        H  0.29379788  0.61735919  0.33636904     0.08660
Cu224      Cu  0.32856455  0.66640828  0.35468497     0.44170
Cu225      Cu  0.32734020  0.63591248  0.32281710     0.41990
Cu226      Cu  0.35917176  0.66728818  0.32309583     0.43880
N227        N  0.34676724  0.68385646  0.35343664    -0.34960
N228        N  0.35810436  0.68419688  0.34191190    -0.29210
C229        C  0.36811906  0.69698413  0.34462102    -0.05310
C230        C  0.36272386  0.70505375  0.35848634     0.06900
C231        C  0.34917665  0.69642368  0.36375437     0.00700
H232        H  0.37848957  0.70016983  0.33702977     0.08350
H233        H  0.34163422  0.69901752  0.37432197     0.07430
N234        N  0.35755884  0.64879011  0.30586750    -0.36410
N235        N  0.34606995  0.63737339  0.30577916    -0.28590
C236        C  0.34891008  0.62700451  0.29331631    -0.03830
C237        C  0.36283332  0.63216699  0.28521131     0.04780
C238        C  0.36798230  0.64601448  0.29345333     0.02880
H239        H  0.34150251  0.61637983  0.29053186     0.07980
H240        H  0.37867186  0.65338246  0.29083464     0.06820
N241        N  0.80443775  0.15435858  0.35408297    -0.27570
N242        N  0.80481029  0.14278838  0.34275498    -0.35430
C243        C  0.79200363  0.13268630  0.34489389     0.00770
C244        C  0.78306726  0.13816913  0.35815293     0.06790
C245        C  0.79127419  0.15193622  0.36370221    -0.06310
H246        H  0.78938895  0.12215813  0.33729013     0.07460
H247        H  0.78800327  0.15956761  0.37401991     0.08660
Cu248      Cu  0.82240751  0.14110774  0.32464643     0.44170
Cu249      Cu  0.82198473  0.17276757  0.35600313     0.41990
Cu250      Cu  0.85408282  0.17163365  0.32532000     0.43880
N251        N  0.84106508  0.14210385  0.30758729    -0.34960
N252        N  0.85278452  0.15325175  0.30794874    -0.29210
C253        C  0.86308192  0.15062014  0.29540335    -0.05310
C254        C  0.85751248  0.13720978  0.28670222     0.06900
C255        C  0.84352455  0.13210664  0.29473911     0.00700
H256        H  0.87376467  0.15799757  0.29278495     0.08350
H257        H  0.83573888  0.12187311  0.29155318     0.07430
N258        N  0.85290228  0.18894294  0.34377030    -0.36410
N259        N  0.84128139  0.18940952  0.35502884    -0.28590
C260        C  0.84431233  0.20196818  0.36527078    -0.03830
C261        C  0.85849383  0.20973393  0.36016566     0.04780
C262        C  0.86358525  0.20116308  0.34650507     0.02880
H263        H  0.83679807  0.20513098  0.37570292     0.07980
H264        H  0.87434322  0.20351247  0.33915233     0.06820
N265        N  0.15258551  0.18719179  0.64195114    -0.27570
N266        N  0.14128432  0.18724878  0.65352531    -0.35430
C267        C  0.13124405  0.20009907  0.65122691     0.00770
C268        C  0.13647893  0.20851958  0.63752958     0.06790
C269        C  0.15002755  0.20001926  0.63193926    -0.06310
H270        H  0.12086889  0.20301113  0.65892336     0.07460
H271        H  0.15744686  0.20287566  0.62135261     0.08660
Cu272      Cu  0.13997656  0.16990601  0.67187666     0.44170
Cu273      Cu  0.17084361  0.16960322  0.64029312     0.41990
Cu274      Cu  0.17102363  0.13833257  0.67188243     0.43880
N275        N  0.14157336  0.15172785  0.68938480    -0.34960
N276        N  0.15296474  0.14021887  0.68947601    -0.29210
C277        C  0.15079123  0.13058273  0.70264118    -0.05310
C278        C  0.13739030  0.13635514  0.71120010     0.06900
C279        C  0.13182383  0.14973696  0.70245972     0.00700
H280        H  0.15844980  0.12021984  0.70575522     0.08350
H281        H  0.12154516  0.15755746  0.70542204     0.07430
N282        N  0.18769609  0.13919485  0.65289395    -0.36410
N283        N  0.18762849  0.15055258  0.64134880    -0.28590
C284        C  0.19984834  0.14746159  0.63077308    -0.03830
C285        C  0.20796254  0.13350898  0.63594577     0.04780
C286        C  0.19996060  0.12859492  0.65000302     0.02880
H287        H  0.20253807  0.15478900  0.62007259     0.07980
H288        H  0.20272054  0.11802717  0.65751277     0.06820
N289        N  0.35425303  0.83948786  0.18855208    -0.27570
N290        N  0.34323118  0.85134390  0.18804919    -0.35430
C291        C  0.34587673  0.86167944  0.20057494     0.00770
C292        C  0.35918392  0.85602127  0.20938216     0.06790
C293        C  0.36419268  0.84192504  0.20143904    -0.06310
H294        H  0.33865799  0.87252236  0.20303499     0.07460
H295        H  0.37438662  0.83409559  0.20466309     0.08660
Cu296      Cu  0.32509473  0.85291073  0.17039757     0.44170
Cu297      Cu  0.35539437  0.82078078  0.17150668     0.41990
Cu298      Cu  0.32415769  0.82086464  0.13981365     0.43880
N299        N  0.30768434  0.85155172  0.15201283    -0.34960
N300        N  0.30722337  0.83979637  0.14089056    -0.29210
C301        C  0.29430433  0.84232235  0.13098709    -0.05310
C302        C  0.28628878  0.85634390  0.13614700     0.06900
C303        C  0.29510920  0.86187770  0.14948095     0.00700
H304        H  0.29098511  0.83449307  0.12083793     0.08350
H305        H  0.29252792  0.87254599  0.15690377     0.07430
N306        N  0.34275863  0.80361066  0.14137828    -0.36410
N307        N  0.35412473  0.80364096  0.15289852    -0.28590
C308        C  0.36443569  0.79105762  0.15033954    -0.03830
C309        C  0.35930420  0.78270570  0.13656300     0.04780
C310        C  0.34553472  0.79097370  0.13118327     0.02880
H311        H  0.37492877  0.78827573  0.15792198     0.07980
H312        H  0.33813407  0.78811504  0.12058856     0.06820
N313        N  0.35430105  0.15173067  0.80549407    -0.27570
N314        N  0.34323096  0.13992030  0.80592629    -0.35430
C315        C  0.34608884  0.12941636  0.79358603     0.00770
C316        C  0.35959407  0.13488378  0.78497802     0.06790
C317        C  0.36449560  0.14906025  0.79284214    -0.06310
H318        H  0.33889123  0.11856640  0.79113658     0.07460
H319        H  0.37477578  0.15680161  0.78970976     0.08660
Cu320      Cu  0.32478002  0.13841646  0.82325904     0.44170
Cu321      Cu  0.35523166  0.17075019  0.82227642     0.41990
Cu322      Cu  0.32359187  0.17074480  0.85332107     0.43880
N323        N  0.30742888  0.13977230  0.84169757    -0.34960
N324        N  0.30692881  0.15172531  0.85259753    -0.29210
C325        C  0.29435515  0.14912271  0.86287455    -0.05310
C326        C  0.28660929  0.13481120  0.85823462     0.06900
C327        C  0.29519696  0.12919085  0.84477319     0.00700
H328        H  0.29122261  0.15699119  0.87305697     0.08350
H329        H  0.29279162  0.11821675  0.83775100     0.07430
N330        N  0.34205254  0.18799460  0.85210013    -0.36410
N331        N  0.35362310  0.18803430  0.84078976    -0.28590
C332        C  0.36387166  0.20059422  0.84367170    -0.03830
C333        C  0.35846773  0.20879403  0.85746214     0.04780
C334        C  0.34461666  0.20049637  0.86248506     0.02880
H335        H  0.37455856  0.20339856  0.83637518     0.07980
H336        H  0.33704547  0.20319813  0.87300520     0.06820
N337        N  0.14091298  0.34207816  0.80563676    -0.27570
N338        N  0.15231318  0.35357645  0.80587440    -0.35430
C339        C  0.14940998  0.36429901  0.79370407     0.00770
C340        C  0.13551072  0.35931237  0.78543060     0.06790
C341        C  0.13045001  0.34518484  0.79330998    -0.06310
H342        H  0.15680524  0.37499981  0.79117847     0.07460
H343        H  0.11988537  0.33775338  0.79039248     0.08660
Cu344      Cu  0.17109546  0.35440500  0.82293200     0.44170
Cu345      Cu  0.13994539  0.32278508  0.82218253     0.41990
Cu346      Cu  0.17155700  0.32212705  0.85326955     0.43880
N347        N  0.18826950  0.35283439  0.84156042    -0.34960
N348        N  0.18843901  0.34103479  0.85265144    -0.29210
C349        C  0.20088401  0.34365429  0.86310066    -0.05310
C350        C  0.20889641  0.35780118  0.85836069     0.06900
C351        C  0.20059076  0.36329739  0.84466624     0.00700
H352        H  0.20375217  0.33591600  0.87346335     0.08350
H353        H  0.20319678  0.37416865  0.83754819     0.07430
N354        N  0.15340703  0.30453102  0.85131577    -0.36410
N355        N  0.14185011  0.30472961  0.83999204    -0.28590
C356        C  0.13210807  0.29160026  0.84207493    -0.03830
C357        C  0.13784422  0.28274107  0.85532959     0.04780
C358        C  0.15133839  0.29129598  0.86089731     0.02880
H359        H  0.12163777  0.28874360  0.83449609     0.07980
H360        H  0.15910261  0.28816481  0.87115472     0.06820
N361        N  0.84408882  0.35526698  0.18620089    -0.27570
N362        N  0.85501585  0.34331194  0.18651663    -0.35430
C363        C  0.86531527  0.34576321  0.19910702     0.00770
C364        C  0.86063757  0.35995680  0.20705439     0.06790
C365        C  0.84715499  0.36567243  0.19856523    -0.06310
H366        H  0.87548983  0.33783974  0.20215813     0.07460
H367        H  0.84007595  0.37657805  0.20115215     0.08660
Cu368      Cu  0.85559802  0.32435110  0.16975447     0.44170
Cu369      Cu  0.82545524  0.35691865  0.16910117     0.41990
Cu370      Cu  0.82447899  0.32512172  0.13826976     0.43880
N371        N  0.85386219  0.30701958  0.15138823    -0.34960
N372        N  0.84261093  0.30737702  0.13976889    -0.29210
C373        C  0.84492044  0.29453689  0.12971801    -0.05310
C374        C  0.85822214  0.28567639  0.13534241     0.06900
C375        C  0.86359585  0.29392831  0.14908966     0.00700
H376        H  0.83741962  0.29184054  0.11915128     0.08350
H377        H  0.87385434  0.29072742  0.15682710     0.07430
N378        N  0.80730064  0.34378123  0.13985918    -0.36410
N379        N  0.80768812  0.35543027  0.15109433    -0.28590
C380        C  0.79483326  0.36549664  0.14888759    -0.03830
C381        C  0.78592353  0.35987549  0.13565071     0.04780
C382        C  0.79416846  0.34610334  0.13021535     0.02880
H383        H  0.79215933  0.37606543  0.15641991     0.07980
H384        H  0.79088225  0.33831469  0.12002492     0.06820
N385        N  0.63845906  0.15315627  0.80797798    -0.27570
N386        N  0.64977445  0.14157339  0.80848653    -0.35430
C387        C  0.64735531  0.13108696  0.79604349     0.00770
C388        C  0.63392476  0.13636155  0.78721847     0.06790
C389        C  0.62858063  0.15039523  0.79509492    -0.06310
H390        H  0.65491554  0.12048542  0.79355754     0.07460
H391        H  0.61823826  0.15799048  0.79178609     0.08660
Cu392      Cu  0.66824520  0.14062231  0.82576954     0.44170
Cu393      Cu  0.63695068  0.17200968  0.82498494     0.41990
Cu394      Cu  0.66936536  0.17319732  0.85549502     0.43880
N395        N  0.68590235  0.14244112  0.84381352    -0.34960
N396        N  0.68641492  0.15444230  0.85465761    -0.29210
C397        C  0.69916994  0.15197733  0.86476703    -0.05310
C398        C  0.70701567  0.13772426  0.86003210     0.06900
C399        C  0.69829866  0.13200602  0.84671312     0.00700
H400        H  0.70233003  0.15985847  0.87492693     0.08350
H401        H  0.70066487  0.12099984  0.83972247     0.07430
N402        N  0.65020821  0.18978690  0.85455051    -0.36410
N403        N  0.63828308  0.18926359  0.84361919    -0.28590
C404        C  0.62760230  0.20141687  0.84677259    -0.03830
C405        C  0.63312702  0.20999268  0.86028453     0.04780
C406        C  0.64748647  0.20231290  0.86488136     0.02880
H407        H  0.61663587  0.20380166  0.83974550     0.07980
H408        H  0.65530282  0.20544797  0.87509318     0.06820
N409        N  0.15399089  0.64114630  0.80538665    -0.27570
N410        N  0.14239775  0.65245416  0.80549311    -0.35430
C411        C  0.13199783  0.64960212  0.79309412     0.00770
C412        C  0.13733585  0.63584764  0.78481221     0.06790
C413        C  0.15130367  0.63079094  0.79289610    -0.06310
H414        H  0.12128859  0.65693523  0.79042645     0.07460
H415        H  0.15885836  0.62027241  0.79006588     0.08660
Cu416      Cu  0.14093409  0.67102378  0.82258726     0.44170
Cu417      Cu  0.17260484  0.63995352  0.82244298     0.41990
Cu418      Cu  0.17176328  0.67073913  0.85424623     0.43880
N419        N  0.14191163  0.68805143  0.84124249    -0.34960
N420        N  0.15316844  0.68792506  0.85285503    -0.29210
C421        C  0.15027876  0.70036667  0.86322860    -0.05310
C422        C  0.13654898  0.70869106  0.85785487     0.06900
C423        C  0.13155471  0.70058042  0.84388795     0.00700
H424        H  0.15758133  0.70305305  0.87393547     0.08350
H425        H  0.12110049  0.70344490  0.83628221     0.07430
N426        N  0.18898804  0.65216594  0.85303422    -0.36410
N427        N  0.18934608  0.64097683  0.84134654    -0.28590
C428        C  0.20182272  0.63061021  0.84415516    -0.03830
C429        C  0.20964517  0.63551207  0.85831403     0.04780
C430        C  0.20121546  0.64920754  0.86362935     0.02880
H431        H  0.20481598  0.62017895  0.83655185     0.07980
H432        H  0.20368053  0.65643386  0.87444570     0.06820
N433        N  0.65366917  0.64177426  0.30702105    -0.27570
N434        N  0.64255315  0.65354678  0.30651698    -0.35430
C435        C  0.63248926  0.65082614  0.29379120     0.00770
C436        C  0.63756739  0.63668060  0.28596113     0.06790
C437        C  0.65101593  0.63126985  0.29465218    -0.06310
H438        H  0.62217634  0.65850685  0.29059067     0.07460
H439        H  0.65826928  0.62042781  0.29229012     0.08660
Cu440      Cu  0.64138702  0.67256634  0.32329921     0.44170
Cu441      Cu  0.67179972  0.64021583  0.32451607     0.41990
Cu442      Cu  0.67213995  0.67198697  0.35518190     0.43880
N443        N  0.64267881  0.68978238  0.34190761    -0.34960
N444        N  0.65381238  0.68942671  0.35364129    -0.29210
C445        C  0.65110555  0.70193394  0.36399381    -0.05310
C446        C  0.63766329  0.71060688  0.35846777     0.06900
C447        C  0.63262611  0.70259542  0.34443633     0.00700
H448        H  0.65837951  0.70447228  0.37475681     0.08350
H449        H  0.62230571  0.70569621  0.33674081     0.07430
N450        N  0.68914964  0.65322485  0.35415491    -0.36410
N451        N  0.68891490  0.64148797  0.34301843    -0.28590
C452        C  0.70141793  0.63114007  0.34577404    -0.03830
C453        C  0.70993900  0.63669992  0.35926442     0.04780
C454        C  0.70186198  0.65071904  0.36427452     0.02880
H455        H  0.70411098  0.62043222  0.33844665     0.07980
H456        H  0.70491811  0.65849512  0.37454614     0.06820
N457        N  0.68767023  0.34369377  0.64133153    -0.27570
N458        N  0.68818073  0.35481506  0.65308260    -0.35430
C459        C  0.70087236  0.36493065  0.65034258     0.00770
C460        C  0.70868528  0.35993362  0.63618155     0.06790
C461        C  0.70000579  0.34644137  0.63078529    -0.06310
H462        H  0.70407040  0.37522824  0.65803645     0.07460
H463        H  0.70240325  0.33918638  0.61996968     0.08660
Cu464      Cu  0.67142176  0.35600798  0.67210357     0.44170
Cu465      Cu  0.67014829  0.32543414  0.64003200     0.41990
Cu466      Cu  0.63913313  0.32559424  0.67159343     0.43880
N467        N  0.65276124  0.35499374  0.68927472    -0.34960
N468        N  0.64092478  0.34395182  0.68898472    -0.29210
C469        C  0.63056064  0.34685738  0.70142526    -0.05310
C470        C  0.63615995  0.36035657  0.70996339     0.06900
C471        C  0.65026576  0.36520377  0.70195407     0.00700
H472        H  0.61969511  0.33972392  0.70396430     0.08350
H473        H  0.65802716  0.37551155  0.70495501     0.07430
N474        N  0.63991274  0.30861895  0.65278457    -0.36410
N475        N  0.65126652  0.30858066  0.64125856    -0.28590
C476        C  0.64826882  0.29622990  0.63080733    -0.03830
C477        C  0.63435260  0.28813011  0.63600962     0.04780
C478        C  0.62937125  0.29628234  0.64997966     0.02880
H479        H  0.65562789  0.29345531  0.62015689     0.07980
H480        H  0.61881834  0.29355268  0.65749641     0.06820
N481        N  0.14366238  0.80557471  0.65174501    -0.27570
N482        N  0.15518005  0.80543351  0.64038909    -0.35430
C483        C  0.15292797  0.79240487  0.63058964     0.00770
C484        C  0.13934208  0.78394889  0.63607319     0.06790
C485        C  0.13375706  0.79262070  0.64949371    -0.06310
H486        H  0.16062501  0.78934861  0.62025893     0.07460
H487        H  0.12325495  0.78978845  0.65704317     0.08660
Cu488      Cu  0.17354784  0.82276424  0.63890520     0.44170
Cu489      Cu  0.14196852  0.82337716  0.66971301     0.41990
Cu490      Cu  0.17362183  0.85445302  0.67003866     0.43880
N491        N  0.19134209  0.84065420  0.64074706    -0.34960
N492        N  0.19145681  0.85216108  0.65213442    -0.29210
C493        C  0.20488142  0.86148436  0.65018499    -0.05310
C494        C  0.21360019  0.85551355  0.63695991     0.06900
C495        C  0.20466256  0.84233876  0.63124708     0.00700
H496        H  0.20808414  0.87176272  0.65790258     0.08350
H497        H  0.20766623  0.83443967  0.62104972     0.07430
N498        N  0.15443498  0.85376022  0.68662773    -0.36410
N499        N  0.14286679  0.84243523  0.68641681    -0.28590
C500        C  0.13222002  0.84541320  0.69859221    -0.03830
C501        C  0.13734875  0.85925439  0.70688285     0.04780
C502        C  0.15147601  0.86423458  0.69899621     0.02880
H503        H  0.12156105  0.83800167  0.70121115     0.07980
H504        H  0.15902919  0.87470381  0.70197020     0.06820
N505        N  0.65363621  0.85432669  0.18884147    -0.27570
N506        N  0.64252844  0.84253767  0.18917489    -0.35430
C507        C  0.63254572  0.84496523  0.20205936     0.00770
C508        C  0.63757668  0.85897829  0.21016398     0.06790
C509        C  0.65095055  0.86460222  0.20143299    -0.06310
H510        H  0.62236147  0.83712022  0.20524833     0.07460
H511        H  0.65831282  0.87528611  0.20411069     0.08660
Cu512      Cu  0.64139227  0.82368182  0.17208297     0.44170
Cu513      Cu  0.67232560  0.85575625  0.17165249     0.41990
Cu514      Cu  0.67316827  0.82370197  0.14122638     0.43880
N515        N  0.64304705  0.80635617  0.15348710    -0.34960
N516        N  0.65473460  0.80637965  0.14229405    -0.29210
C517        C  0.65243174  0.79370983  0.13203581    -0.05310
C518        C  0.63859888  0.78532163  0.13696931     0.06900
C519        C  0.63294185  0.79366342  0.15059836     0.00700
H520        H  0.66018882  0.79093019  0.12167226     0.08350
H521        H  0.62224840  0.79077846  0.15785381     0.07430
N522        N  0.69052258  0.84208610  0.14263286    -0.36410
N523        N  0.69029147  0.85384294  0.15375678    -0.28590
C524        C  0.70336779  0.86360781  0.15148312    -0.03830
C525        C  0.71220439  0.85767529  0.13829659     0.04780
C526        C  0.70369582  0.84404825  0.13297552     0.02880
H527        H  0.70623094  0.87419595  0.15891169     0.07980
H528        H  0.70685874  0.83607491  0.12288446     0.06820
N529        N  0.65327309  0.68953007  0.64029726    -0.27570
N530        N  0.64185641  0.68953558  0.65177000    -0.35430
C531        C  0.63158574  0.70214048  0.64911953     0.00770
C532        C  0.63679660  0.71044405  0.63532366     0.06790
C533        C  0.65057344  0.70213821  0.63004271    -0.06310
H534        H  0.62102891  0.70493201  0.65661042     0.07460
H535        H  0.65799841  0.70491414  0.61943840     0.08660
Cu536      Cu  0.64044450  0.67228966  0.67033532     0.44170
Cu537      Cu  0.67173206  0.67217274  0.63875075     0.41990
Cu538      Cu  0.67184833  0.64115201  0.67029868     0.43880
N539        N  0.64167239  0.65352611  0.68738391    -0.34960
N540        N  0.65327567  0.64222964  0.68739576    -0.29210
C541        C  0.65051940  0.63164008  0.69967850    -0.05310
C542        C  0.63647864  0.63648855  0.70775976     0.06900
C543        C  0.63117879  0.65041176  0.69967598     0.00700
H544        H  0.65804226  0.62104827  0.70231927     0.08350
H545        H  0.62040176  0.65763378  0.70237045     0.07430
N546        N  0.68833151  0.64165455  0.65115913    -0.36410
N547        N  0.68831017  0.65296352  0.63957453    -0.28590
C548        C  0.70018422  0.64949389  0.62872139    -0.03830
C549        C  0.70798284  0.63530622  0.63374200     0.04780
C550        C  0.70018989  0.63068266  0.64801139     0.02880
H551        H  0.70278959  0.65666830  0.61789722     0.07980
H552        H  0.70277973  0.62003540  0.65546914     0.06820
N553        N  0.84067663  0.18998761  0.63971333    -0.27570
N554        N  0.85226536  0.18962044  0.65100788    -0.35430
C555        C  0.86274299  0.20205000  0.64836347     0.00770
C556        C  0.85750155  0.21067770  0.63477259     0.06790
C557        C  0.84347290  0.20270937  0.62959803    -0.06310
H558        H  0.87342760  0.20455092  0.65576728     0.07460
H559        H  0.83593753  0.20580546  0.61916102     0.08660
Cu560      Cu  0.85353858  0.17223832  0.66948993     0.44170
Cu561      Cu  0.82183326  0.17291350  0.63833249     0.41990
Cu562      Cu  0.82253803  0.14086843  0.66921705     0.43880
N563        N  0.85221312  0.15370922  0.68681710    -0.34960
N564        N  0.84083518  0.14219835  0.68672428    -0.29210
C565        C  0.84334148  0.13203061  0.69944357    -0.05310
C566        C  0.85695846  0.13741873  0.70793544     0.06900
C567        C  0.86227413  0.15118316  0.69959651     0.00700
H568        H  0.83584494  0.12146563  0.70222782     0.08350
H569        H  0.87272237  0.15877225  0.70252789     0.07430
N570        N  0.80537208  0.14215450  0.65059193    -0.36410
N571        N  0.80494929  0.15387387  0.63941236    -0.28590
C572        C  0.79232197  0.15105138  0.62921090    -0.03830
C573        C  0.78449943  0.13685820  0.63420656     0.04780
C574        C  0.79309871  0.13155710  0.64777854     0.02880
H575        H  0.78918614  0.15868411  0.61884753     0.07980
H576        H  0.79065526  0.12077621  0.65508887     0.06820
N577        N  0.35867681  0.68619645  0.65141287    -0.27570
N578        N  0.34703312  0.68608367  0.64018641    -0.35430
C579        C  0.34972709  0.69828595  0.62948913     0.00770
C580        C  0.36375762  0.70643657  0.63420946     0.06790
C581        C  0.36912366  0.69849200  0.64815661    -0.06310
H582        H  0.34213963  0.70085507  0.61894828     0.07460
H583        H  0.37990345  0.70128885  0.65531283     0.08660
Cu584      Cu  0.32841235  0.66903655  0.63937284     0.44170
Cu585      Cu  0.36012477  0.66933840  0.67027282     0.41990
Cu586      Cu  0.32963159  0.63701011  0.66957679     0.43880
N587        N  0.31179485  0.65002963  0.64026151    -0.34960
N588        N  0.31233185  0.63814183  0.65122872    -0.29210
C589        C  0.30010320  0.62753383  0.64829990    -0.05310
C590        C  0.29148440  0.63308286  0.63485075     0.06900
C591        C  0.29919731  0.64736258  0.63006189     0.00700
H592        H  0.29770822  0.61662125  0.65542995     0.08350
H593        H  0.29600922  0.65518365  0.61985589     0.07430
N594        N  0.34784299  0.63884221  0.68696524    -0.36410
N595        N  0.35893519  0.65062834  0.68732231    -0.28590
C596        C  0.36898152  0.64811862  0.70010787    -0.03830
C597        C  0.36392539  0.63408074  0.70811214     0.04780
C598        C  0.35051074  0.62852059  0.69947850     0.02880
H599        H  0.37926954  0.65585522  0.70321731     0.07980
H600        H  0.34326536  0.61771597  0.70199692     0.06820
N601        N  0.84332656  0.64104194  0.18708015    -0.27570
N602        N  0.85472087  0.65253922  0.18697929    -0.35430
C603        C  0.86549351  0.64950185  0.19902334     0.00770
C604        C  0.86066106  0.63538918  0.20703541     0.06790
C605        C  0.84656305  0.63034152  0.19917341    -0.06310
H606        H  0.87617091  0.65690705  0.20157576     0.07460
H607        H  0.83926196  0.61963001  0.20191830     0.08660
Cu608      Cu  0.85562822  0.67141618  0.17009294     0.44170
Cu609      Cu  0.82419454  0.64018849  0.17053295     0.41990
Cu610      Cu  0.82399555  0.67177370  0.13930439     0.43880
N611        N  0.85469838  0.68823316  0.15116505    -0.34960
N612        N  0.84312725  0.68835355  0.13986545    -0.29210
C613        C  0.84628518  0.70036831  0.12905872    -0.05310
C614        C  0.86054609  0.70813739  0.13380007     0.06900
C615        C  0.86554288  0.70016575  0.14786714     0.00700
H616        H  0.83885093  0.70308114  0.11844472     0.08350
H617        H  0.87636151  0.70267946  0.15506944     0.07430
N618        N  0.80675273  0.65328045  0.14082101    -0.36410
N619        N  0.80680128  0.64177022  0.15221208    -0.28590
C620        C  0.79434888  0.63137902  0.14942490    -0.03830
C621        C  0.78612893  0.63660216  0.13559474     0.04780
C622        C  0.79428762  0.65051772  0.13046259     0.02880
H623        H  0.79171605  0.62064473  0.15673812     0.07980
H624        H  0.79158333  0.65793306  0.11982463     0.06820
N625        N  0.65503291  0.85404085  0.80449655    -0.27570
N626        N  0.64354053  0.84263989  0.80465771    -0.35430
C627        C  0.63321059  0.84523467  0.79214334     0.00770
C628        C  0.63844081  0.85892032  0.78367816     0.06790
C629        C  0.65232019  0.86420885  0.79180952    -0.06310
H630        H  0.62256474  0.83779747  0.78955420     0.07460
H631        H  0.65974542  0.87479287  0.78890778     0.08660
Cu632      Cu  0.64194395  0.82428005  0.82200857     0.44170
Cu633      Cu  0.67347062  0.85546121  0.82189119     0.41990
Cu634      Cu  0.67316737  0.82383374  0.85313334     0.43880
N635        N  0.64265936  0.80734478  0.84079882    -0.34960
N636        N  0.65418727  0.80713128  0.85213713    -0.29210
C637        C  0.65106875  0.79495054  0.86274722    -0.05310
C638        C  0.63686920  0.78717382  0.85785171     0.06900
C639        C  0.63185646  0.79531260  0.84389031     0.00700
H640        H  0.65846755  0.79215970  0.87336556     0.08350
H641        H  0.62108406  0.79282336  0.83661017     0.07430
N642        N  0.69010726  0.84261935  0.85229200    -0.36410
N643        N  0.69016811  0.85420974  0.84097855    -0.28590
C644        C  0.70236297  0.86477548  0.84420825    -0.03830
C645        C  0.71032749  0.85956066  0.85820895     0.04780
C646        C  0.70226368  0.84547719  0.86300433     0.02880
H647        H  0.70510390  0.87553228  0.83696907     0.07980
H648        H  0.70486252  0.83797086  0.87360544     0.06820
N649        N  0.84287030  0.30825164  0.85433831    -0.27570
N650        N  0.85438571  0.30825963  0.84297882    -0.35430
C651        C  0.86479160  0.29581758  0.84587305     0.00770
C652        C  0.85954780  0.28762308  0.85972824     0.06790
C653        C  0.84561999  0.29581489  0.86477469    -0.06310
H654        H  0.87544984  0.29306282  0.83851319     0.07460
H655        H  0.83811200  0.29306857  0.87532808     0.08660
Cu656      Cu  0.85556190  0.32540457  0.82432696     0.44170
Cu657      Cu  0.82421646  0.32536508  0.85535407     0.41990
Cu658      Cu  0.82438776  0.35714536  0.82436875     0.43880
N659        N  0.85426282  0.34399321  0.80711184    -0.34960
N660        N  0.84293196  0.35557616  0.80710440    -0.29210
C661        C  0.84565501  0.36575018  0.79443947    -0.05310
C662        C  0.85935199  0.36028945  0.78611470     0.06900
C663        C  0.86449328  0.34648377  0.79447160     0.00700
H664        H  0.83826203  0.37637997  0.79159274     0.08350
H665        H  0.87495256  0.33884807  0.79166446     0.07430
N666        N  0.80718644  0.35570552  0.84297933    -0.36410
N667        N  0.80711974  0.34403085  0.85420377    -0.28590
C668        C  0.79453240  0.34653510  0.86448955    -0.03830
C669        C  0.78629708  0.36046637  0.85951524     0.04780
C670        C  0.79463014  0.36598425  0.84584774     0.02880
H671        H  0.79169322  0.33883197  0.87488418     0.07980
H672        H  0.79183844  0.37669353  0.83855264     0.06820
N673        N  0.57429640  0.29260267  0.88246547    -0.27570
N674        N  0.57128141  0.27874366  0.87474474    -0.35430
C675        C  0.55708674  0.28024649  0.86653157     0.00770
C676        C  0.55083683  0.29590242  0.86917259     0.06790
C677        C  0.56243045  0.30341058  0.87906431    -0.06310
H678        H  0.55197271  0.27072395  0.85889500     0.07460
H679        H  0.56274481  0.31597601  0.88314931     0.08660
Cu680      Cu  0.58779253  0.25944791  0.87452877     0.44170
Cu681      Cu  0.59369891  0.29613797  0.89817457     0.41990
Cu682      Cu  0.62351023  0.26416982  0.90129503     0.43880
N683        N  0.60787637  0.24388668  0.87451544    -0.34960
N684        N  0.62075748  0.24555538  0.88418953    -0.29210
C685        C  0.63163269  0.23367299  0.88071535    -0.05310
C686        C  0.62533964  0.22417038  0.86820470     0.06900
C687        C  0.61028573  0.23098623  0.86456344     0.00700
H688        H  0.64335138  0.23222918  0.88670803     0.08350
H689        H  0.60173636  0.22696144  0.85529401     0.07430
N690        N  0.62282876  0.28414921  0.91700218    -0.36410
N691        N  0.61168064  0.29581187  0.91586066    -0.28590
C692        C  0.61388043  0.30666236  0.92801592    -0.03830
C693        C  0.62733721  0.30182829  0.93712290     0.04780
C694        C  0.63259612  0.28739167  0.92984064     0.02880
H695        H  0.60603728  0.31712006  0.93016526     0.07980
H696        H  0.64281135  0.27981778  0.93356842     0.06820
N697        N  0.29130094  0.57532767  0.88423443    -0.27570
N698        N  0.28010100  0.57517441  0.87257606    -0.35430
C699        C  0.28312024  0.56257840  0.86242267     0.00770
C700        C  0.29695543  0.55442267  0.86786756     0.06790
C701        C  0.30165508  0.56272569  0.88189865    -0.06310
H702        H  0.27607282  0.55989054  0.85154366     0.07460
H703        H  0.31197151  0.56001704  0.88973225     0.08660
Cu704      Cu  0.26153757  0.59235988  0.87068161     0.44170
Cu705      Cu  0.29250097  0.59317330  0.90224754     0.41990
Cu706      Cu  0.25867677  0.62161361  0.90390295     0.43880
N707        N  0.24418164  0.61083019  0.87179664    -0.34960
N708        N  0.24317207  0.62148031  0.88394269    -0.29210
C709        C  0.23081899  0.63193674  0.88096253    -0.05310
C710        C  0.22367928  0.62760435  0.86627271     0.06900
C711        C  0.23242717  0.61417847  0.86077909     0.00700
H712        H  0.22730624  0.64191562  0.88893946     0.08350
H713        H  0.23044151  0.60734994  0.84961157     0.07430
N714        N  0.27717636  0.62092949  0.92110552    -0.36410
N715        N  0.29006289  0.61125355  0.91989517    -0.28590
C716        C  0.30061876  0.61491283  0.93193779    -0.03830
C717        C  0.29384237  0.62714443  0.94166059     0.04780
C718        C  0.27898887  0.63071208  0.93419580     0.02880
H719        H  0.31256654  0.60936675  0.93303205     0.07980
H720        H  0.27021515  0.63997798  0.93774502     0.06820
N721        N  0.38453357  0.28862780  0.92027825    -0.27570
N722        N  0.37347317  0.27681222  0.92038001    -0.35430
C723        C  0.36369539  0.27872936  0.93346060     0.00770
C724        C  0.36883645  0.29238071  0.94213302     0.06790
C725        C  0.38198668  0.29843726  0.93325755    -0.06310
H726        H  0.35333817  0.27094797  0.93621696     0.07460
H727        H  0.38881568  0.30953095  0.93564017     0.08660
Cu728      Cu  0.37132406  0.25912922  0.90232823     0.44170
Cu729      Cu  0.40243349  0.29109432  0.90238000     0.41990
Cu730      Cu  0.40221751  0.25968616  0.87108696     0.43880
N731        N  0.37166798  0.24296406  0.88280263    -0.34960
N732        N  0.38308828  0.24316870  0.87135624    -0.29210
C733        C  0.38009254  0.23115544  0.86052213    -0.05310
C734        C  0.36610487  0.22300013  0.86540955     0.06900
C735        C  0.36105762  0.23080027  0.87956447     0.00700
H736        H  0.38761322  0.22852148  0.84994882     0.08350
H737        H  0.35055020  0.22779996  0.88704159     0.07430
N738        N  0.41977785  0.27780438  0.87268122    -0.36410
N739        N  0.41977942  0.28950898  0.88384886    -0.28590
C740        C  0.43234755  0.29973223  0.88084723    -0.03830
C741        C  0.44078782  0.29404686  0.86724753     0.04780
C742        C  0.43233709  0.28019159  0.86236204     0.02880
H743        H  0.43474987  0.31080764  0.88770091     0.07980
H744        H  0.43488694  0.27258033  0.85182787     0.06820
N745        N  0.28931638  0.38517198  0.91973926    -0.27570
N746        N  0.27837603  0.37323260  0.91993820    -0.35430
C747        C  0.28146700  0.36333198  0.93275652     0.00770
C748        C  0.29490267  0.36941768  0.94113664     0.06790
C749        C  0.29958086  0.38320610  0.93242338    -0.06310
H750        H  0.27487616  0.35212602  0.93531202     0.07460
H751        H  0.31000977  0.39100252  0.93484614     0.08660
Cu752      Cu  0.26022168  0.37044420  0.90236292     0.44170
Cu753      Cu  0.29074475  0.40322864  0.90189285     0.41990
Cu754      Cu  0.25822941  0.40310094  0.87248215     0.43880
N755        N  0.24324721  0.37119058  0.88345729    -0.34960
N756        N  0.24256580  0.38320306  0.87261591    -0.29210
C757        C  0.23037514  0.38020427  0.86199995    -0.05310
C758        C  0.22296986  0.36563400  0.86639273     0.06900
C759        C  0.23142494  0.36022823  0.88004639     0.00700
H760        H  0.22712628  0.38811292  0.85188066     0.08350
H761        H  0.22914329  0.34919234  0.88702249     0.07430
N762        N  0.27656178  0.42055171  0.87278945    -0.36410
N763        N  0.28896720  0.42028831  0.88313627    -0.28590
C764        C  0.29958275  0.43221607  0.87903062    -0.03830
C765        C  0.29359279  0.44032043  0.86535454     0.04780
C766        C  0.27879102  0.43275021  0.86199180     0.02880
H767        H  0.31108517  0.43444406  0.88519576     0.07980
H768        H  0.27036506  0.43558980  0.85219674     0.06820
N769        N  0.38408974  0.28807433  0.07341844    -0.27570
N770        N  0.37071913  0.27918673  0.07537132    -0.35430
C771        C  0.36016823  0.28259507  0.06318497     0.00770
C772        C  0.36734993  0.29396817  0.05279307     0.06790
C773        C  0.38249588  0.29716291  0.05981261    -0.06310
H774        H  0.34795369  0.27757843  0.06237809     0.07460
H775        H  0.39159214  0.30581277  0.05558842     0.08660
Cu776      Cu  0.36759866  0.26266599  0.09436798     0.44170
Cu777      Cu  0.40343600  0.28869546  0.08994240     0.41990
Cu778      Cu  0.40208435  0.25890449  0.12220833     0.43880
N779        N  0.36909683  0.24527847  0.11278409    -0.34960
N780        N  0.38169361  0.24389186  0.12285012    -0.29210
C781        C  0.37914612  0.23113814  0.13293920    -0.05310
C782        C  0.36429853  0.22410233  0.12894333     0.06900
C783        C  0.35824049  0.23335857  0.11613018     0.00700
H784        H  0.38764310  0.22712066  0.14226759     0.08350
H785        H  0.34691515  0.23144873  0.10954680     0.07430
N786        N  0.42027892  0.27641984  0.12028379    -0.36410
N787        N  0.42058688  0.28772034  0.10871434    -0.28590
C788        C  0.43283373  0.29827929  0.11189492    -0.03830
C789        C  0.44054474  0.29344962  0.12623486     0.04780
C790        C  0.43240150  0.27933507  0.13100078     0.02880
H791        H  0.43545857  0.30910247  0.10470786     0.07980
H792        H  0.43473657  0.27194702  0.14173267     0.06820
N793        N  0.29019655  0.38347309  0.07382580    -0.27570
N794        N  0.28050013  0.37076786  0.07610050    -0.35430
C795        C  0.28260376  0.36004016  0.06387606     0.00770
C796        C  0.29406124  0.36621443  0.05285738     0.06790
C797        C  0.29863297  0.38115836  0.05987323    -0.06310
H798        H  0.27610615  0.34862835  0.06364897     0.07460
H799        H  0.30776279  0.38965895  0.05546920     0.08660
Cu800      Cu  0.26403993  0.36816588  0.09510500     0.44170
Cu801      Cu  0.29161584  0.40305994  0.09014122     0.41990
Cu802      Cu  0.26000094  0.40203646  0.12182329     0.43880
N803        N  0.24641139  0.36909680  0.11318391    -0.34960
N804        N  0.24487916  0.38173683  0.12314752    -0.29210
C805        C  0.23212607  0.37911775  0.13321237    -0.05310
C806        C  0.22524861  0.36413767  0.12926140     0.06900
C807        C  0.23460815  0.35811103  0.11650920     0.00700
H808        H  0.22798970  0.38763897  0.14247185     0.08350
H809        H  0.23285853  0.34671773  0.10997350     0.07430
N810        N  0.27724100  0.42046697  0.11939346    -0.36410
N811        N  0.28911235  0.42072152  0.10840276    -0.28590
C812        C  0.29901807  0.43353655  0.11159893    -0.03830
C813        C  0.29292977  0.44189638  0.12510700     0.04780
C814        C  0.27913252  0.43314717  0.12965598     0.02880
H815        H  0.31026753  0.43602103  0.10508686     0.07980
H816        H  0.27136397  0.43539749  0.14013817     0.06820
C817        C  0.33335911  0.33242784  0.98784734     0.00280
C818        C  0.33390177  0.33362827  0.00451484     0.00280
N819        N  0.57335880  0.60800893  0.20883372    -0.27570
N820        N  0.57487224  0.62077299  0.21865436    -0.35430
C821        C  0.56315191  0.63176254  0.21510588     0.00770
C822        C  0.55388252  0.62572025  0.20230434     0.06790
C823        C  0.56058917  0.61052609  0.19875650    -0.06310
H824        H  0.56193013  0.64361132  0.22092486     0.07460
H825        H  0.55679699  0.60211304  0.18926555     0.08660
Cu826      Cu  0.59346324  0.62318651  0.23558518     0.44170
Cu827      Cu  0.58971727  0.58858174  0.20868375     0.41990
Cu828      Cu  0.62428873  0.59107614  0.23644368     0.43880
N829        N  0.61297186  0.62282895  0.25162878    -0.34960
N830        N  0.62420815  0.61116191  0.25201383    -0.29210
C831        C  0.63483190  0.61440587  0.26415043    -0.05310
C832        C  0.62999332  0.62877276  0.27172563     0.06900
C833        C  0.61612627  0.63379507  0.26347187     0.00700
H834        H  0.64515113  0.60673396  0.26735155     0.08350
H835        H  0.60869853  0.64447557  0.26601987     0.07430
N836        N  0.62115920  0.57236308  0.21953583    -0.36410
N837        N  0.60851864  0.57151949  0.20947662    -0.28590
C838        C  0.61064744  0.55878851  0.19927964    -0.03830
C839        C  0.62525089  0.55109590  0.20315641     0.04780
C840        C  0.63164111  0.56012232  0.21601340     0.02880
H841        H  0.60251403  0.55579862  0.18927136     0.07980
H842        H  0.64350131  0.55856740  0.22169167     0.06820
N843        N  0.60998584  0.42115078  0.20378704    -0.27570
N844        N  0.61978334  0.42232551  0.21660460    -0.35430
C845        C  0.63013247  0.43490726  0.21438329     0.00770
C846        C  0.62707677  0.44184160  0.19922957     0.06790
C847        C  0.61403107  0.43293484  0.19295957    -0.06310
H848        H  0.63944545  0.43845687  0.22308138     0.07460
H849        H  0.60827187  0.43454991  0.18114931     0.08660
Cu850      Cu  0.62024068  0.40589543  0.23586873     0.44170
Cu851      Cu  0.59187747  0.40323200  0.20165749     0.41990
Cu852      Cu  0.58985357  0.37445888  0.23580184     0.43880
N853        N  0.62003757  0.38689905  0.25261823    -0.34960
N854        N  0.60880303  0.37526327  0.25259687    -0.29210
C855        C  0.61216250  0.36450449  0.26460319    -0.05310
C856        C  0.62620133  0.36965251  0.27254185     0.06900
C857        C  0.63087909  0.38388260  0.26462699     0.00700
H858        H  0.60496695  0.35370050  0.26726305     0.08350
H859        H  0.64141573  0.39144361  0.26730611     0.07430
N860        N  0.57329156  0.37485511  0.21662889    -0.36410
N861        N  0.57424920  0.38484857  0.20392529    -0.28590
C862        C  0.56228211  0.38098501  0.19327687    -0.03830
C863        C  0.55342908  0.36787053  0.19951712     0.04780
C864        C  0.56064955  0.36454460  0.21448925     0.02880
H865        H  0.56041536  0.38701684  0.18163445     0.07980
H866        H  0.55714940  0.35520283  0.22319212     0.06820
N867        N  0.38577087  0.42081000  0.20752689    -0.27570
N868        N  0.37314855  0.41971723  0.21756539    -0.35430
C869        C  0.36222092  0.43144247  0.21377162     0.00770
C870        C  0.36818217  0.44023451  0.20057741     0.06790
C871        C  0.38323460  0.43326067  0.19705493    -0.06310
H872        H  0.35049934  0.43301287  0.21973419     0.07460
H873        H  0.39155430  0.43668314  0.18734379     0.08660
Cu874      Cu  0.37104808  0.40159985  0.23512651     0.44170
Cu875      Cu  0.40507473  0.40436839  0.20768333     0.41990
Cu876      Cu  0.40210867  0.36934321  0.23474135     0.43880
N877        N  0.37177980  0.38232125  0.25153433    -0.34960
N878        N  0.38294224  0.37056703  0.25140202    -0.29210
C879        C  0.37999075  0.36025368  0.26390069    -0.05310
C880        C  0.36635400  0.36582641  0.27225460     0.06900
C881        C  0.36145611  0.37980928  0.26408496     0.00700
H882        H  0.38735260  0.34961130  0.26678101     0.08350
H883        H  0.35123954  0.38769253  0.26709686     0.07430
N884        N  0.42071647  0.37235113  0.21768082    -0.36410
N885        N  0.42191568  0.38540731  0.20818925    -0.28590
C886        C  0.43484365  0.38361188  0.19821969    -0.03830
C887        C  0.44226904  0.36870519  0.20152572     0.04780
C888        C  0.43285114  0.36183285  0.21389048     0.02880
H889        H  0.43821444  0.39228855  0.18879169     0.07980
H890        H  0.43413937  0.34973816  0.21915346     0.06820
N891        N  0.38803239  0.57173256  0.20334858    -0.27570
N892        N  0.37835614  0.57086587  0.21629744    -0.35430
C893        C  0.36764538  0.55859242  0.21428717     0.00770
C894        C  0.37023006  0.55156682  0.19912336     0.06790
C895        C  0.38346495  0.56003681  0.19261773    -0.06310
H896        H  0.35834431  0.55537814  0.22313363     0.07460
H897        H  0.38893981  0.55825120  0.18069701     0.08660
Cu898      Cu  0.37780286  0.58742474  0.23536735     0.44170
Cu899      Cu  0.40660331  0.58920899  0.20087536     0.41990
Cu900      Cu  0.40695308  0.61891753  0.23443857     0.43880
N901        N  0.37722512  0.60671318  0.25166532    -0.34960
N902        N  0.38818799  0.61856992  0.25129140    -0.29210
C903        C  0.38474054  0.62951081  0.26308372    -0.05310
C904        C  0.37087832  0.62423611  0.27123914     0.06900
C905        C  0.36640487  0.60975438  0.26367634     0.00700
H906        H  0.39180723  0.64045183  0.26551282     0.08350
H907        H  0.35611274  0.60197817  0.26667979     0.07430
N908        N  0.42428137  0.61789400  0.21611868    -0.36410
N909        N  0.42423772  0.60758532  0.20363419    -0.28590
C910        C  0.43675433  0.61148578  0.19357578    -0.03830
C911        C  0.44507598  0.62477647  0.20019891     0.04780
C912        C  0.43672357  0.62844482  0.21443287     0.02880
H913        H  0.43913267  0.60558585  0.18196725     0.07980
H914        H  0.43912758  0.63850750  0.22270964     0.06820
C915        C  0.32898003  0.48771046  0.16562958     0.00280
C916        C  0.33043344  0.50438735  0.16415007     0.00280
C917        C  0.48809512  0.33399502  0.16019789     0.00280
C918        C  0.50483077  0.33334334  0.16117065     0.00280
N919        N  0.61480468  0.70419438  0.91676377    -0.27570
N920        N  0.62424457  0.71723066  0.91839405    -0.35430
C921        C  0.63365848  0.71545639  0.93175542     0.00770
C922        C  0.63014622  0.70044589  0.93881693     0.06790
C923        C  0.61799458  0.69372437  0.92907603    -0.06310
H924        H  0.64250553  0.72439766  0.93588650     0.07460
H925        H  0.61216899  0.68191802  0.93061856     0.08660
Cu926      Cu  0.62444161  0.73644446  0.90197509     0.44170
Cu927      Cu  0.59797163  0.70157135  0.89789231     0.41990
Cu928      Cu  0.59174277  0.73752968  0.87229863     0.43880
N929        N  0.62301951  0.75345941  0.88334403    -0.34960
N930        N  0.61105177  0.75394881  0.87247581    -0.29210
C931        C  0.61409583  0.76602762  0.86169820    -0.05310
C932        C  0.62865269  0.77346998  0.86607629     0.06900
C933        C  0.63396979  0.76521544  0.87984036     0.00700
H934        H  0.60636674  0.76903008  0.85137594     0.08350
H935        H  0.64506138  0.76743193  0.88671820     0.07430
N936        N  0.57656245  0.71723591  0.87211224    -0.36410
N937        N  0.57970024  0.70368989  0.88033971    -0.28590
C938        C  0.56855305  0.69232953  0.87630321    -0.03830
C939        C  0.55753669  0.69898017  0.86506561     0.04780
C940        C  0.56303847  0.71500921  0.86301885     0.02880
H941        H  0.56862035  0.68009092  0.88134508     0.07980
H942        H  0.55773096  0.72465879  0.85576331     0.06820
N943        N  0.60941138  0.42257554  0.79002346    -0.27570
N944        N  0.62171634  0.42158636  0.77956407    -0.35430
C945        C  0.63199947  0.43417797  0.78212087     0.00770
C946        C  0.62579472  0.44382178  0.79461813     0.06790
C947        C  0.61152038  0.43594191  0.79942646    -0.06310
H948        H  0.64346702  0.43578825  0.77571591     0.07460
H949        H  0.60340161  0.43947696  0.80927000     0.08660
Cu950      Cu  0.62430053  0.40328043  0.76222169     0.44170
Cu951      Cu  0.59067969  0.40532265  0.79159292     0.41990
Cu952      Cu  0.59077151  0.37503649  0.75923201     0.43880
N953        N  0.62323968  0.38480367  0.74491204    -0.34960
N954        N  0.61085105  0.37446117  0.74378474    -0.29210
C955        C  0.61362787  0.36407414  0.73132526    -0.05310
C956        C  0.62843907  0.36815667  0.72422293     0.06900
C957        C  0.63420958  0.38135282  0.73313179     0.00700
H958        H  0.60538610  0.35438213  0.72764005     0.08350
H959        H  0.64547579  0.38802892  0.73116039     0.07430
N960        N  0.57323333  0.37603578  0.77749157    -0.36410
N961        N  0.57349093  0.38656034  0.78977187    -0.28590
C962        C  0.56149696  0.38260981  0.80037768    -0.03830
C963        C  0.55336160  0.36886764  0.79453048     0.04780
C964        C  0.56097512  0.36532630  0.77979494     0.02880
H965        H  0.55925733  0.38890884  0.81180710     0.07980
H966        H  0.55814102  0.35544855  0.77145883     0.06820
N967        N  0.38604061  0.42180962  0.78585697    -0.27570
N968        N  0.37272797  0.41982969  0.77690452    -0.35430
C969        C  0.36176654  0.43143072  0.78096830     0.00770
C970        C  0.36844217  0.44110497  0.79318521     0.06790
C971        C  0.38395015  0.43475648  0.79580908    -0.06310
H972        H  0.34961037  0.43240541  0.77580533     0.07460
H973        H  0.39296820  0.43899386  0.80451459     0.08660
Cu974      Cu  0.36995728  0.40102549  0.76010337     0.44170
Cu975      Cu  0.40581241  0.40595821  0.78515155     0.41990
Cu976      Cu  0.40282572  0.37079049  0.75851993     0.43880
N977        N  0.37068314  0.38159502  0.74380185    -0.34960
N978        N  0.38254421  0.37056182  0.74331035    -0.29210
C979        C  0.37959751  0.36003818  0.73100861    -0.05310
C980        C  0.36525756  0.36473654  0.72336012     0.06900
C981        C  0.35991130  0.37841681  0.73178308     0.00700
H982        H  0.38755452  0.34998856  0.72763535     0.08350
H983        H  0.34917114  0.38573344  0.72919405     0.07430
N984        N  0.42211473  0.37453343  0.77453908    -0.36410
N985        N  0.42315873  0.38748044  0.78419154    -0.28590
C986        C  0.43624574  0.38579938  0.79398108    -0.03830
C987        C  0.44395212  0.37116204  0.79024239     0.04780
C988        C  0.43458636  0.36428539  0.77790269     0.02880
H989        H  0.43943575  0.39421903  0.80369414     0.07980
H990        H  0.43609457  0.35226414  0.77252489     0.06820
N991        N  0.38804800  0.57066005  0.78774945    -0.27570
N992        N  0.37740455  0.57095546  0.77559786    -0.35430
C993        C  0.36665745  0.55868218  0.77752770     0.00770
C994        C  0.37060168  0.55013914  0.79163770     0.06790
C995        C  0.38420021  0.55822152  0.79788342    -0.06310
H996        H  0.35634380  0.55652690  0.76951412     0.07460
H997        H  0.39038121  0.55578229  0.80932538     0.08660
Cu998      Cu  0.37664961  0.58900316  0.75791791     0.44170
Cu999      Cu  0.40673953  0.58780820  0.78998030     0.41990
Cu1000     Cu  0.40669480  0.62113364  0.76003432     0.43880
N1001       N  0.37700767  0.60886473  0.74228520    -0.34960
N1002       N  0.38799136  0.62071910  0.74304387    -0.29210
C1003       C  0.38497138  0.63164554  0.73110392    -0.05310
C1004       C  0.37142613  0.62635535  0.72246844     0.06900
C1005       C  0.36666624  0.61191077  0.72988703     0.00700
H1006       H  0.39220395  0.64250855  0.72880795     0.08350
H1007       H  0.35655731  0.60407600  0.72645369     0.07430
N1008       N  0.42428363  0.61824946  0.77796853    -0.36410
N1009       N  0.42433529  0.60619477  0.78878872    -0.28590
C1010       C  0.43698370  0.60837453  0.79906386    -0.03830
C1011       C  0.44536848  0.62240025  0.79445059     0.04780
C1012       C  0.43685867  0.62840012  0.78109572     0.02880
H1013       H  0.43955880  0.60061677  0.80949054     0.07980
H1014       H  0.43909926  0.63975197  0.77463327     0.06820
C1015       C  0.32884885  0.50556096  0.82765766     0.00280
C1016       C  0.32950553  0.48879200  0.82809047     0.00280
C1017       C  0.50423082  0.33199334  0.83069872     0.00280
C1018       C  0.48746313  0.33252949  0.83032769     0.00280
N1019       N  0.57705333  0.61058856  0.78954423    -0.27570
N1020       N  0.57533514  0.62018088  0.77662906    -0.35430
C1021       C  0.56216362  0.62979302  0.77875673     0.00770
C1022       C  0.55546991  0.62642639  0.79396189     0.06790
C1023       C  0.56511869  0.61400616  0.80033671    -0.06310
H1024       H  0.55803570  0.63877527  0.76995016     0.07460
H1025       H  0.56386671  0.60821460  0.81218118     0.08660
Cu1026     Cu  0.59182319  0.62127434  0.75748090     0.44170
Cu1027     Cu  0.59547516  0.59331455  0.79193131     0.41990
Cu1028     Cu  0.62420130  0.59163578  0.75817978     0.43880
N1029       N  0.61119881  0.62160034  0.74123104    -0.34960
N1030       N  0.62315027  0.61068801  0.74150559    -0.29210
C1031       C  0.63399763  0.61432076  0.72968670    -0.05310
C1032       C  0.62858639  0.62820700  0.72162418     0.06900
C1033       C  0.61411170  0.63251583  0.72925580     0.00700
H1034       H  0.64500579  0.60737786  0.72720253     0.08350
H1035       H  0.60627265  0.64280691  0.72636091     0.07430
N1036       N  0.62329029  0.57449980  0.77682574    -0.36410
N1037       N  0.61325214  0.57538961  0.78946406    -0.28590
C1038       C  0.61648135  0.56293314  0.79975240    -0.03830
C1039       C  0.62898420  0.55353277  0.79312777     0.04780
C1040       C  0.63303705  0.56137671  0.77863523     0.02880
H1041       H  0.61050944  0.56123996  0.81143484     0.07980
H1042       H  0.64262778  0.55801646  0.77014642     0.06820
N1043       N  0.70484071  0.42129143  0.88582457    -0.27570
N1044       N  0.71725285  0.42179640  0.87546713    -0.35430
C1045       C  0.71549475  0.43479745  0.86558683     0.00770
C1046       C  0.70129460  0.44299594  0.86985034     0.06790
C1047       C  0.69477855  0.43400928  0.88270790    -0.06310
H1048       H  0.72364679  0.43768207  0.85555802     0.07460
H1049       H  0.68320374  0.43606176  0.88880037     0.08660
Cu1050     Cu  0.73533813  0.40417098  0.87375220     0.44170
Cu1051     Cu  0.70211326  0.40284912  0.90314833     0.41990
Cu1052     Cu  0.73443897  0.37177159  0.90302307     0.43880
N1053       N  0.75171466  0.38487681  0.87340664    -0.34960
N1054       N  0.75138400  0.37285939  0.88423262    -0.29210
C1055       C  0.76355339  0.36227381  0.88091176    -0.05310
C1056       C  0.77191751  0.36794314  0.86732517     0.06900
C1057       C  0.76407885  0.38228511  0.86286181     0.00700
H1058       H  0.76614960  0.35133398  0.88793198     0.08350
H1059       H  0.76717483  0.39031566  0.85279203     0.07430
N1060       N  0.71625072  0.37338148  0.92059092    -0.36410
N1061       N  0.70427009  0.38427650  0.92042025    -0.28590
C1062       C  0.69439222  0.38151416  0.93329138    -0.03830
C1063       C  0.70063032  0.36846832  0.94223608     0.04780
C1064       C  0.71440783  0.36354949  0.93364660     0.02880
H1065       H  0.68327714  0.38830098  0.93567127     0.07980
H1066       H  0.72248328  0.35345277  0.93656979     0.06820
N1067       N  0.57066378  0.28671272  0.10700928    -0.27570
N1068       N  0.57219277  0.27767915  0.12036016    -0.35430
C1069       C  0.56061616  0.28209584  0.13119011     0.00770
C1070       C  0.55146423  0.29466021  0.12444854     0.06790
C1071       C  0.55803556  0.29709686  0.10900535    -0.06310
H1072       H  0.55955977  0.27718271  0.14344300     0.07460
H1073       H  0.55441252  0.30624888  0.10013946     0.08660
Cu1074     Cu  0.59091545  0.26102116  0.12415820     0.44170
Cu1075     Cu  0.58730279  0.28656954  0.08776253     0.41990
Cu1076     Cu  0.62512390  0.26543499  0.09710612     0.43880
N1077       N  0.61108013  0.24569554  0.12477895    -0.34960
N1078       N  0.62369856  0.24727807  0.11478905    -0.29210
C1079       C  0.63430775  0.23496730  0.11755420    -0.05310
C1080       C  0.62806117  0.22524768  0.12994242     0.06900
C1081       C  0.61335235  0.23242925  0.13426966     0.00700
H1082       H  0.64557198  0.23309678  0.11084782     0.08350
H1083       H  0.60472956  0.22812604  0.14335024     0.07430
N1084       N  0.62221571  0.28136782  0.07756954    -0.36410
N1085       N  0.60812565  0.28793814  0.07322249    -0.28590
C1086       C  0.61031003  0.29646717  0.05929654    -0.03830
C1087       C  0.62667938  0.29534388  0.05454915     0.04780
C1088       C  0.63379297  0.28592186  0.06686722     0.02880
H1089       H  0.60064942  0.30329240  0.05336869     0.07980
H1090       H  0.64648662  0.28283185  0.06855524     0.06820
N1091       N  0.70837479  0.42389468  0.10711298    -0.27570
N1092       N  0.71739597  0.42227846  0.12043817    -0.35430
C1093       C  0.71312778  0.43396434  0.13123374     0.00770
C1094       C  0.70068934  0.44331832  0.12447677     0.06790
C1095       C  0.69818292  0.43670194  0.10905324    -0.06310
H1096       H  0.71818806  0.43509626  0.14341349     0.07460
H1097       H  0.68926305  0.44054972  0.10006356     0.08660
Cu1098     Cu  0.73425678  0.40355054  0.12376752     0.44170
Cu1099     Cu  0.70879835  0.40735461  0.08779855     0.41990
Cu1100     Cu  0.73257849  0.37053282  0.09405469     0.43880
N1101       N  0.75022604  0.38377066  0.12364609    -0.34960
N1102       N  0.74954486  0.37172815  0.11284142    -0.29210
C1103       C  0.76198481  0.36129256  0.11559038    -0.05310
C1104       C  0.77091561  0.36704034  0.12875161     0.06900
C1105       C  0.76310876  0.38128542  0.13359343     0.00700
H1106       H  0.76451184  0.35051241  0.10831090     0.08350
H1107       H  0.76670907  0.38944581  0.14338022     0.07430
N1108       N  0.71654129  0.37365993  0.07468357    -0.36410
N1109       N  0.70845052  0.38741857  0.07199577    -0.28590
C1110       C  0.69918646  0.38559499  0.05854061    -0.03830
C1111       C  0.70149434  0.36990151  0.05238014     0.04780
C1112       C  0.71248520  0.36265512  0.06312242     0.02880
H1113       H  0.69095519  0.39488680  0.05390021     0.07980
H1114       H  0.71672819  0.35010397  0.06303201     0.06820
C1115       C  0.66277449  0.33292316  0.98977045     0.00280
C1116       C  0.66035282  0.33520101  0.00622454     0.00280
N1117       N  0.29157328  0.57384578  0.10824549    -0.27570
N1118       N  0.28174030  0.57491666  0.12104532    -0.35430
C1119       C  0.28516986  0.56266661  0.13147584     0.00770
C1120       C  0.29781733  0.55339257  0.12502276     0.06790
C1121       C  0.30136749  0.56072390  0.11011953    -0.06310
H1122       H  0.27915322  0.56090854  0.14313804     0.07460
H1123       H  0.31047539  0.55696251  0.10129211     0.08660
Cu1124     Cu  0.26403394  0.59280947  0.12406663     0.44170
Cu1125     Cu  0.29205605  0.59078352  0.08927499     0.41990
Cu1126     Cu  0.26004840  0.62113160  0.09067608     0.43880
N1127       N  0.24656426  0.61116283  0.12338681    -0.34960
N1128       N  0.24519070  0.62155470  0.11106211    -0.29210
C1129       C  0.23267943  0.63181682  0.11397935    -0.05310
C1130       C  0.22577822  0.62760700  0.12881758     0.06900
C1131       C  0.23486135  0.61446703  0.13448339     0.00700
H1132       H  0.22877489  0.64145357  0.10576285     0.08350
H1133       H  0.23302565  0.60770174  0.14572070     0.07430
N1134       N  0.27722859  0.61986223  0.07223999    -0.36410
N1135       N  0.28946516  0.60929655  0.07202552    -0.28590
C1136       C  0.29945298  0.61300922  0.05947196    -0.03830
C1137       C  0.29296873  0.62635814  0.05110646     0.04780
C1138       C  0.27888614  0.63034065  0.05970070     0.02880
H1139       H  0.31097119  0.60690596  0.05719069     0.07980
H1140       H  0.27070252  0.64051430  0.05742423     0.06820
N1141       N  0.38579556  0.70190760  0.91839891    -0.27570
N1142       N  0.37237250  0.71030248  0.91510807    -0.35430
C1143       C  0.36130876  0.70757951  0.92688773     0.00770
C1144       C  0.36820034  0.69748453  0.93867996     0.06790
C1145       C  0.38370351  0.69388566  0.93266114    -0.06310
H1146       H  0.34907050  0.71256857  0.92663015     0.07460
H1147       H  0.39284420  0.68608567  0.93823782     0.08660
Cu1148     Cu  0.36983680  0.72679876  0.89607047     0.44170
Cu1149     Cu  0.40595672  0.70175728  0.90295176     0.41990
Cu1150     Cu  0.40472833  0.73278432  0.87070086     0.43880
N1151       N  0.37135054  0.74548352  0.87904109    -0.34960
N1152       N  0.38429512  0.74765889  0.86961058    -0.29210
C1153       C  0.38196703  0.76100105  0.86025034    -0.05310
C1154       C  0.36687072  0.76761374  0.86411280     0.06900
C1155       C  0.36046075  0.75748958  0.87608004     0.00700
H1156       H  0.39076820  0.76570663  0.85154771     0.08350
H1157       H  0.34885650  0.75883299  0.88231640     0.07430
N1158       N  0.42340899  0.71595895  0.87361941    -0.36410
N1159       N  0.42371573  0.70443131  0.88498011    -0.28590
C1160       C  0.43680416  0.69476933  0.88242451    -0.03830
C1161       C  0.44534815  0.70067946  0.86899139     0.04780
C1162       C  0.43636727  0.71406770  0.86369882     0.02880
H1163       H  0.43939421  0.68379031  0.88937134     0.07980
H1164       H  0.43872832  0.72159028  0.85305668     0.06820
N1165       N  0.38782292  0.70398668  0.07342487    -0.27570
N1166       N  0.37504078  0.71378211  0.07506982    -0.35430
C1167       C  0.36412123  0.71036245  0.06330659     0.00770
C1168       C  0.37021372  0.69771977  0.05381420     0.06790
C1169       C  0.38537371  0.69407628  0.06049554    -0.06310
H1170       H  0.35239751  0.71640005  0.06199927     0.07460
H1171       H  0.39396038  0.68486241  0.05638943     0.08660
Cu1172     Cu  0.37250206  0.73113433  0.09331714     0.44170
Cu1173     Cu  0.40743616  0.70394620  0.08946673     0.41990
Cu1174     Cu  0.40385010  0.73198663  0.12395283     0.43880
N1175       N  0.37272342  0.74778275  0.11236563    -0.34960
N1176       N  0.38425587  0.74808223  0.12369126    -0.29210
C1177       C  0.38118611  0.76043720  0.13413104    -0.05310
C1178       C  0.36704999  0.76828309  0.12907815     0.06900
C1179       C  0.36199520  0.75994257  0.11525550     0.00700
H1180       H  0.38880352  0.76357568  0.14449031     0.08350
H1181       H  0.35141903  0.76259183  0.10774153     0.07430
N1182       N  0.42252485  0.71503531  0.12123717    -0.36410
N1183       N  0.42401400  0.70503388  0.10860099    -0.28590
C1184       C  0.43709717  0.69530664  0.11094520    -0.03830
C1185       C  0.44404188  0.69921999  0.12589895     0.04780
C1186       C  0.43457354  0.71189850  0.13196991     0.02880
H1187       H  0.44100264  0.68586364  0.10252169     0.07980
H1188       H  0.43597212  0.71799631  0.14364002     0.06820
C1189       C  0.32940954  0.66627489  0.98870716     0.00280
C1190       C  0.32855511  0.66757635  0.00544689     0.00280
N1191       N  0.70697028  0.61036204  0.07258700    -0.27570
N1192       N  0.71923698  0.62090519  0.07227229    -0.35430
C1193       C  0.71722612  0.63122673  0.05962701     0.00770
C1194       C  0.70273450  0.62733399  0.05174977     0.06790
C1195       C  0.69669299  0.61388587  0.06022496    -0.06310
H1196       H  0.72574587  0.64087472  0.05656407     0.07460
H1197       H  0.68539073  0.60740433  0.05785268     0.08660
Cu1198     Cu  0.73737169  0.62215416  0.08980473     0.44170
Cu1199     Cu  0.70471249  0.59175320  0.08986770     0.41990
Cu1200     Cu  0.73622803  0.59175409  0.12124174     0.43880
N1201       N  0.75294868  0.62233084  0.10967704    -0.34960
N1202       N  0.75255906  0.61110398  0.12131644    -0.29210
C1203       C  0.76417907  0.61451794  0.13244861    -0.05310
C1204       C  0.77222178  0.62859166  0.12752849     0.06900
C1205       C  0.76477945  0.63324018  0.11306955     0.00700
H1206       H  0.76664031  0.60722382  0.14322815     0.08350
H1207       H  0.76781118  0.64366852  0.10547528     0.07430
N1208       N  0.71834529  0.57393968  0.11916520    -0.36410
N1209       N  0.70664562  0.57393237  0.10799572    -0.28590
C1210       C  0.69652718  0.56122659  0.11091586    -0.03830
C1211       C  0.70224440  0.55276312  0.12449619     0.04780
C1212       C  0.71604212  0.56128358  0.12939654     0.02880
H1213       H  0.68540751  0.55883550  0.10414757     0.07980
H1214       H  0.72355362  0.55882656  0.14002044     0.06820
N1215       N  0.61219904  0.70520650  0.07468449    -0.27570
N1216       N  0.62474840  0.71542156  0.07529815    -0.35430
C1217       C  0.63483901  0.71224516  0.06263856     0.00770
C1218       C  0.62820556  0.69957060  0.05346401     0.06790
C1219       C  0.61390464  0.69542410  0.06159382    -0.06310
H1220       H  0.64643852  0.71831001  0.06066715     0.07460
H1221       H  0.60549122  0.68568744  0.05844931     0.08660
Cu1222     Cu  0.62768489  0.73306410  0.09344609     0.44170
Cu1223     Cu  0.59350717  0.70393129  0.09188655     0.41990
Cu1224     Cu  0.59427347  0.73521091  0.12243914     0.43880
N1225       N  0.62642460  0.75015363  0.11229866    -0.34960
N1226       N  0.61416492  0.75084928  0.12283972    -0.29210
C1227       C  0.61672412  0.76327790  0.13331971    -0.05310
C1228       C  0.63125394  0.77084839  0.12914183     0.06900
C1229       C  0.63710134  0.76222309  0.11576626     0.00700
H1230       H  0.60847701  0.76666305  0.14311024     0.08350
H1231       H  0.64819959  0.76461957  0.10895469     0.07430
N1232       N  0.57609549  0.71765995  0.12105656    -0.36410
N1233       N  0.57595389  0.70570132  0.11018887    -0.28590
C1234       C  0.56345338  0.69549082  0.11362610    -0.03830
C1235       C  0.55516592  0.70148621  0.12722073     0.04780
C1236       C  0.56365004  0.71554495  0.13154611     0.02880
H1237       H  0.56118627  0.68412186  0.10722746     0.07980
H1238       H  0.56134716  0.72336821  0.14198115     0.06820
C1239       C  0.66166050  0.66029158  0.00478560     0.00280
C1240       C  0.66135129  0.66109977  0.98805329     0.00280
C1241       C  0.50811822  0.66776322  0.16852825     0.00280
C1242       C  0.49132817  0.66780729  0.16766022     0.00280
C1243       C  0.66369034  0.50722968  0.16289556     0.00280
C1244       C  0.66369111  0.49039223  0.16253613     0.00280
N1245       N  0.70881905  0.61015686  0.92102809    -0.27570
N1246       N  0.71834189  0.62318267  0.91978318    -0.35430
C1247       C  0.71468103  0.63370070  0.93194756     0.00770
C1248       C  0.70233652  0.62687457  0.94139213     0.06790
C1249       C  0.69890931  0.61199752  0.93399457    -0.06310
H1250       H  0.72004027  0.64574366  0.93329811     0.07460
H1251       H  0.68944402  0.60338526  0.93742175     0.08660
Cu1252     Cu  0.73512192  0.62621247  0.90098263     0.44170
Cu1253     Cu  0.70830878  0.59113857  0.90423698     0.41990
Cu1254     Cu  0.73520834  0.59425235  0.86963904     0.43880
N1255       N  0.75139015  0.62535618  0.88151613    -0.34960
N1256       N  0.75147519  0.61375032  0.87021342    -0.29210
C1257       C  0.76389650  0.61653247  0.85977722    -0.05310
C1258       C  0.77200127  0.63053267  0.86476792     0.06900
C1259       C  0.76374634  0.63582317  0.87855674     0.00700
H1260       H  0.76691636  0.60878857  0.84946664     0.08350
H1261       H  0.76664462  0.64634380  0.88606697     0.07430
N1262       N  0.71792901  0.57581781  0.87218898    -0.36410
N1263       N  0.70817842  0.57457429  0.88502462    -0.28590
C1264       C  0.69800423  0.56181086  0.88283987    -0.03830
C1265       C  0.70136312  0.55478224  0.86777546     0.04780
C1266       C  0.71420386  0.56388817  0.86146607     0.02880
H1267       H  0.68865486  0.55815150  0.89146557     0.07980
H1268       H  0.72002129  0.56231761  0.84967653     0.06820
C1269       C  0.66605265  0.48965999  0.82992076     0.00280
C1270       C  0.66750793  0.50632535  0.82898097     0.00280
C1271       C  0.50748972  0.65994296  0.83337924     0.00280
C1272       C  0.49079019  0.66072686  0.83308792     0.00280
N1273       N  0.84494815  0.64182252  0.80683058    -0.27570
N1274       N  0.85639572  0.65327470  0.80689902    -0.35430
C1275       C  0.86681449  0.65051705  0.79445920     0.00770
C1276       C  0.86168668  0.63663910  0.78623056     0.06790
C1277       C  0.84780764  0.63143859  0.79438954    -0.06310
H1278       H  0.87740361  0.65798851  0.79172706     0.07460
H1279       H  0.84032605  0.62088499  0.79153435     0.08660
Cu1280     Cu  0.85758193  0.67192968  0.82403829     0.44170
Cu1281     Cu  0.82592289  0.64070216  0.82355143     0.41990
Cu1282     Cu  0.82504878  0.67260585  0.85408146     0.43880
N1283       N  0.85606897  0.68900332  0.84272563    -0.34960
N1284       N  0.84408551  0.68931279  0.85359344    -0.29210
C1285       C  0.84669391  0.70168423  0.86412364    -0.05310
C1286       C  0.86103990  0.70948183  0.85970008     0.06900
C1287       C  0.86667331  0.70114465  0.84608869     0.00700
H1288       H  0.83882973  0.70461265  0.87436482     0.08350
H1289       H  0.87769656  0.70362775  0.83918624     0.07430
N1290       N  0.80776710  0.65413561  0.85263648    -0.36410
N1291       N  0.80807703  0.64241712  0.84147747    -0.28590
C1292       C  0.79534455  0.63227890  0.84397529    -0.03830
C1293       C  0.78664459  0.63790953  0.85736196     0.04780
C1294       C  0.79485397  0.65177530  0.86255157     0.02880
H1295       H  0.79271433  0.62155534  0.83665439     0.07980
H1296       H  0.79176641  0.65953116  0.87283277     0.06820
N1297       N  0.35453861  0.84026160  0.80625893    -0.27570
N1298       N  0.34269968  0.85130450  0.80605041    -0.35430
C1299       C  0.34478314  0.86121816  0.79307058     0.00770
C1300       C  0.35860978  0.85614651  0.78473186     0.06790
C1301       C  0.36450010  0.84284565  0.79342422    -0.06310
H1302       H  0.33682389  0.87135714  0.78997581     0.07460
H1303       H  0.37519884  0.83554401  0.79063354     0.08660
Cu1304     Cu  0.32427578  0.85225335  0.82338264     0.44170
Cu1305     Cu  0.35636158  0.82204382  0.82380924     0.41990
Cu1306     Cu  0.32405291  0.82039177  0.85432322     0.43880
N1307       N  0.30702360  0.85063370  0.84183893    -0.34960
N1308       N  0.30683322  0.83900801  0.85311234    -0.29210
C1309       C  0.29405768  0.84154891  0.86319252    -0.05310
C1310       C  0.28587640  0.85544574  0.85797861     0.06900
C1311       C  0.29442130  0.86088448  0.84443647     0.00700
H1312       H  0.29103153  0.83389520  0.87357122     0.08350
H1313       H  0.29172610  0.87152134  0.83700193     0.07430
N1314       N  0.34297245  0.80353304  0.85283284    -0.36410
N1315       N  0.35486220  0.80431225  0.84187845    -0.28590
C1316       C  0.36519282  0.79170863  0.84425321    -0.03830
C1317       C  0.35947680  0.78252538  0.85726192     0.04780
C1318       C  0.34537619  0.79034851  0.86241971     0.02880
H1319       H  0.37596815  0.78934187  0.83692883     0.07980
H1320       H  0.33746242  0.78678019  0.87241739     0.06820
N1321       N  0.28918349  0.91998498  0.60833733    -0.27570
N1322       N  0.28234177  0.91618388  0.62247364    -0.35430
C1323       C  0.28579459  0.92785289  0.63347732     0.00770
C1324       C  0.29485028  0.94006074  0.62591404     0.06790
C1325       C  0.29694348  0.93445627  0.60996054    -0.06310
H1326       H  0.28231994  0.92706130  0.64619685     0.07460
H1327       H  0.30386451  0.94026956  0.60029063     0.08660
Cu1328     Cu  0.26777938  0.89594425  0.62646319     0.44170
Cu1329     Cu  0.28886625  0.90431135  0.58819848     0.41990
Cu1330     Cu  0.26720524  0.86572157  0.59542867     0.43880
N1331       N  0.25091489  0.87716851  0.62612947    -0.34960
N1332       N  0.25064114  0.86589034  0.61455713    -0.29210
C1333       C  0.23750912  0.85621930  0.61678659    -0.05310
C1334       C  0.22912910  0.86177138  0.63041636     0.06900
C1335       C  0.23797847  0.87504638  0.63605772     0.00700
H1336       H  0.23404429  0.84626663  0.60876262     0.08350
H1337       H  0.23497256  0.88292370  0.64627111     0.07430
N1338       N  0.28231212  0.87011741  0.57559692    -0.36410
N1339       N  0.28930874  0.88433267  0.57230036    -0.28590
C1340       C  0.29754905  0.88297636  0.55810230    -0.03830
C1341       C  0.29569898  0.86711105  0.55212144     0.04780
C1342       C  0.28618758  0.85931306  0.56384263     0.02880
H1343       H  0.30466508  0.89278356  0.55276346     0.07980
H1344       H  0.28271648  0.84655654  0.56427862     0.06820
N1345       N  0.61061457  0.92195619  0.28990802    -0.27570
N1346       N  0.62173840  0.92196767  0.27817269    -0.35430
C1347       C  0.63178261  0.93482376  0.28032121     0.00770
C1348       C  0.62689694  0.94341711  0.29415144     0.06790
C1349       C  0.61349613  0.93469335  0.29999099    -0.06310
H1350       H  0.64219285  0.93743034  0.27257148     0.07460
H1351       H  0.60673535  0.93694485  0.31113433     0.08660
Cu1352     Cu  0.62399303  0.90366118  0.26065265     0.44170
Cu1353     Cu  0.59247619  0.90412483  0.29192787     0.41990
Cu1354     Cu  0.59771167  0.86862304  0.26541945     0.43880
N1355       N  0.62465231  0.88349912  0.24515734    -0.34960
N1356       N  0.61495508  0.87064455  0.24685289    -0.29210
C1357       C  0.61802876  0.85994322  0.23469729    -0.05310
C1358       C  0.63033010  0.86633905  0.22495665     0.06900
C1359       C  0.63426169  0.88126229  0.23197239     0.00700
H1360       H  0.61173194  0.84839858  0.23306226     0.08350
H1361       H  0.64329382  0.88996376  0.22770911     0.07430
N1362       N  0.57957728  0.87062069  0.28312249    -0.36410
N1363       N  0.57692411  0.88389820  0.29195789    -0.28590
C1364       C  0.56332634  0.88165460  0.30099348    -0.03830
C1365       C  0.55731021  0.86591782  0.29820492     0.04780
C1366       C  0.56805319  0.85944288  0.28666258     0.02880
H1367       H  0.55818616  0.89107939  0.30868346     0.07980
H1368       H  0.56759948  0.84744313  0.28108264     0.06820
N1369       N  0.61223279  0.20484378  0.57685564    -0.27570
N1370       N  0.62158289  0.21797889  0.57545463    -0.35430
C1371       C  0.63118030  0.21640287  0.56219767     0.00770
C1372       C  0.62799000  0.20138699  0.55498049     0.06790
C1373       C  0.61573925  0.19448529  0.56451440    -0.06310
H1374       H  0.64000442  0.22546842  0.55829066     0.07460
H1375       H  0.61012300  0.18259380  0.56286748     0.08660
Cu1376     Cu  0.62182603  0.23697020  0.59220118     0.44170
Cu1377     Cu  0.59530128  0.20183758  0.59568572     0.41990
Cu1378     Cu  0.59082176  0.23652067  0.62350273     0.43880
N1379       N  0.62083934  0.25379554  0.61109073    -0.34960
N1380       N  0.60943750  0.25370933  0.62256231    -0.29210
C1381       C  0.61245191  0.26590558  0.63320977    -0.05310
C1382       C  0.62641720  0.27402965  0.62814582     0.06900
C1383       C  0.63141484  0.26603677  0.61409842     0.00700
H1384       H  0.60509228  0.26855039  0.64389307     0.08350
H1385       H  0.64200497  0.26881297  0.60665168     0.07430
N1386       N  0.57556406  0.21626362  0.62355362    -0.36410
N1387       N  0.57780657  0.20326644  0.61418509    -0.28590
C1388       C  0.56656773  0.19190827  0.61810995    -0.03830
C1389       C  0.55661867  0.19800274  0.63051715     0.04780
C1390       C  0.56263270  0.21365563  0.63339671     0.02880
H1391       H  0.56575367  0.18003415  0.61229276     0.07980
H1392       H  0.55793853  0.22271167  0.64180733     0.06820
N1393       N  0.28939870  0.92087354  0.38561741    -0.27570
N1394       N  0.27974102  0.91935967  0.37274685    -0.35430
C1395       C  0.28343842  0.93114791  0.36186023     0.00770
C1396       C  0.29614395  0.94046143  0.36812001     0.06790
C1397       C  0.29941606  0.93372470  0.38333460    -0.06310
H1398       H  0.27772203  0.93244770  0.34998989     0.07460
H1399       H  0.30865504  0.93758169  0.39198368     0.08660
Cu1400     Cu  0.26254543  0.90088765  0.37036234     0.44170
Cu1401     Cu  0.28973428  0.90443652  0.40489413     0.41990
Cu1402     Cu  0.26181432  0.87012425  0.40255390     0.43880
N1403       N  0.24593466  0.88175810  0.37128388    -0.34960
N1404       N  0.24563261  0.87055187  0.38297754    -0.29210
C1405       C  0.23312768  0.86021313  0.38016773    -0.05310
C1406       C  0.22519048  0.86520091  0.36606648     0.06900
C1407       C  0.23363635  0.87886985  0.36074794     0.00700
H1408       H  0.22993138  0.84998016  0.38795707     0.08350
H1409       H  0.23093979  0.88632041  0.35013264     0.07430
N1410       N  0.27922971  0.87285921  0.42083898    -0.36410
N1411       N  0.28940664  0.88542011  0.42164063    -0.28590
C1412       C  0.29970705  0.88318859  0.43426504    -0.03830
C1413       C  0.29571696  0.86861603  0.44194220     0.04780
C1414       C  0.28275050  0.86232647  0.43300597     0.02880
H1415       H  0.30965081  0.89137111  0.43736220     0.07980
H1416       H  0.27678768  0.85062126  0.43475638     0.06820
N1417       N  0.38383967  0.91926933  0.28902274    -0.27570
N1418       N  0.37352350  0.91941970  0.27658203    -0.35430
C1419       C  0.36307134  0.93200230  0.27836254     0.00770
C1420       C  0.36661832  0.93996944  0.29290334     0.06790
C1421       C  0.38003975  0.93166118  0.29920348    -0.06310
H1422       H  0.35339207  0.93484335  0.26980494     0.07460
H1423       H  0.38623841  0.93408965  0.31064402     0.08660
Cu1424     Cu  0.37267820  0.90146513  0.25876783     0.44170
Cu1425     Cu  0.40224327  0.90186088  0.29159158     0.41990
Cu1426     Cu  0.40100013  0.86787646  0.26259600     0.43880
N1427       N  0.37246670  0.88122670  0.24356340    -0.34960
N1428       N  0.38279379  0.86882745  0.24494072    -0.29210
C1429       C  0.37961168  0.85784961  0.23307864    -0.05310
C1430       C  0.36662319  0.86364662  0.22387260     0.06900
C1431       C  0.36237667  0.87845924  0.23088381     0.00700
H1432       H  0.38635885  0.84658944  0.23121968     0.08350
H1433       H  0.35280910  0.88674494  0.22695590     0.07430
N1434       N  0.41910224  0.87094396  0.28012438    -0.36410
N1435       N  0.41971670  0.88336386  0.29049192    -0.28590
C1436       C  0.43316869  0.88180319  0.29985847    -0.03830
C1437       C  0.44154075  0.86780959  0.29508174     0.04780
C1438       C  0.43207525  0.86113420  0.28269216     0.02880
H1439       H  0.43654764  0.89021021  0.30951486     0.07980
H1440       H  0.43419591  0.84975879  0.27624366     0.06820
N1441       N  0.28901261  0.10738013  0.42081669    -0.27570
N1442       N  0.27899557  0.12008589  0.41988427    -0.35430
C1443       C  0.28281418  0.13081698  0.43177276     0.00770
C1444       C  0.29594989  0.12465867  0.44053821     0.06790
C1445       C  0.29938814  0.10966201  0.43337177    -0.06310
H1446       H  0.27682286  0.14251278  0.43354905     0.07460
H1447       H  0.30892092  0.10112712  0.43680419     0.08660
Cu1448     Cu  0.26096484  0.12270681  0.40220043     0.44170
Cu1449     Cu  0.28911570  0.08795339  0.40442498     0.41990
Cu1450     Cu  0.25850994  0.08982566  0.37282407     0.43880
N1451       N  0.24388350  0.12198750  0.38344274    -0.34960
N1452       N  0.24307978  0.10992991  0.37267530    -0.29210
C1453       C  0.23072094  0.11286956  0.36223072    -0.05310
C1454       C  0.22334302  0.12744792  0.36667917     0.06900
C1455       C  0.23198731  0.13292053  0.38016925     0.00700
H1456       H  0.22726402  0.10486030  0.35226954     0.08350
H1457       H  0.22974467  0.14394682  0.38716943     0.07430
N1458       N  0.27557213  0.07117639  0.37466344    -0.36410
N1459       N  0.28701713  0.07052647  0.38605595    -0.28590
C1460       C  0.29695724  0.05773438  0.38293829    -0.03830
C1461       C  0.29136460  0.04982143  0.36899526     0.04780
C1462       C  0.27782425  0.05879554  0.36408715     0.02880
H1463       H  0.30795457  0.05499620  0.38978013     0.07980
H1464       H  0.27053200  0.05689855  0.35320385     0.06820
N1465       N  0.42159287  0.10817991  0.28696542    -0.27570
N1466       N  0.42080693  0.12094648  0.27703808    -0.35430
C1467       C  0.43305744  0.13137355  0.28072878     0.00770
C1468       C  0.44205954  0.12476771  0.29353366     0.06790
C1469       C  0.43431110  0.11011759  0.29718633    -0.06310
H1470       H  0.43477393  0.14322850  0.27505500     0.07460
H1471       H  0.43736363  0.10171871  0.30697072     0.08660
Cu1472     Cu  0.40235824  0.12375917  0.25972987     0.44170
Cu1473     Cu  0.40467834  0.08922012  0.28726290     0.41990
Cu1474     Cu  0.37099786  0.09155004  0.25929651     0.43880
N1475       N  0.38278581  0.12292866  0.24347751    -0.34960
N1476       N  0.37147853  0.11131902  0.24341439    -0.29210
C1477       C  0.36088773  0.11419730  0.23116145    -0.05310
C1478       C  0.36576614  0.12824734  0.22309559     0.06900
C1479       C  0.37966406  0.13348881  0.23121940     0.00700
H1480       H  0.35055832  0.10645466  0.22820740     0.08350
H1481       H  0.38710545  0.14406147  0.22831953     0.07430
N1482       N  0.37369920  0.07269897  0.27603716    -0.36410
N1483       N  0.38613469  0.07188554  0.28633108    -0.28590
C1484       C  0.38404432  0.05890331  0.29623138    -0.03830
C1485       C  0.36967147  0.05102826  0.29187205     0.04780
C1486       C  0.36337249  0.06021610  0.27907739     0.02880
H1487       H  0.39209222  0.05577032  0.30626994     0.07980
H1488       H  0.35173125  0.05848940  0.27301495     0.06820
C1489       C  0.33075447  0.00565871  0.32990474     0.00280
C1490       C  0.33091941  0.98883267  0.32977986     0.00280
N1491       N  0.41990759  0.20417865  0.61284194    -0.27570
N1492       N  0.41843632  0.21509460  0.62467153    -0.35430
C1493       C  0.43095917  0.21344141  0.63518648     0.00770
C1494       C  0.44095307  0.20091955  0.62967836     0.06790
C1495       C  0.43339327  0.19515347  0.61560059    -0.06310
H1496       H  0.43261657  0.22082013  0.64605699     0.07460
H1497       H  0.43717284  0.18492558  0.60808718     0.08660
Cu1498     Cu  0.39949805  0.23161460  0.62602851     0.44170
Cu1499     Cu  0.40347191  0.20229802  0.59353259     0.41990
Cu1500     Cu  0.36925107  0.23105034  0.59380932     0.43880
N1501       N  0.38044272  0.24797815  0.62449064    -0.34960
N1502       N  0.36935495  0.24798727  0.61271981    -0.29210
C1503       C  0.35910474  0.26067990  0.61508093    -0.05310
C1504       C  0.36408906  0.26896195  0.62898806     0.06900
C1505       C  0.37760728  0.26057517  0.63463884     0.00700
H1506       H  0.34896302  0.26375782  0.60714242     0.08350
H1507       H  0.38503751  0.26352454  0.64518766     0.07430
N1508       N  0.37255583  0.21301655  0.57623362    -0.36410
N1509       N  0.38512330  0.20280253  0.57593005    -0.28590
C1510       C  0.38337630  0.19253376  0.56317960    -0.03830
C1511       C  0.36882319  0.19621243  0.55525086     0.04780
C1512       C  0.36242754  0.20940739  0.56378624     0.02880
H1513       H  0.39196622  0.18292020  0.56013955     0.07980
H1514       H  0.35093373  0.21558097  0.56147124     0.06820
N1515       N  0.41879995  0.20366447  0.38382363    -0.27570
N1516       N  0.41935055  0.21593854  0.37326881    -0.35430
C1517       C  0.43204227  0.21371141  0.36305442     0.00770
C1518       C  0.43974636  0.19915798  0.36711846     0.06790
C1519       C  0.43111688  0.19322740  0.38048013    -0.06310
H1520       H  0.43526523  0.22204748  0.35328588     0.07460
H1521       H  0.43338929  0.18193585  0.38704663     0.08660
Cu1522     Cu  0.40242474  0.23476196  0.37225913     0.44170
Cu1523     Cu  0.40131597  0.20167216  0.40227572     0.41990
Cu1524     Cu  0.37306232  0.23600228  0.40453094     0.43880
N1525       N  0.38354930  0.25162267  0.37308893    -0.34960
N1526       N  0.37267880  0.25205771  0.38504061    -0.29210
C1527       C  0.36184928  0.26410018  0.38207141    -0.05310
C1528       C  0.36618758  0.27162619  0.36755838     0.06900
C1529       C  0.37999107  0.26342142  0.36217620     0.00700
H1530       H  0.35163503  0.26714866  0.38992872     0.08350
H1531       H  0.38693998  0.26581329  0.35116422     0.07430
N1532       N  0.37380348  0.21720030  0.42138664    -0.36410
N1533       N  0.38348528  0.20426491  0.42031257    -0.28590
C1534       C  0.37957917  0.19371651  0.43236913    -0.03830
C1535       C  0.36675782  0.20031414  0.44136907     0.04780
C1536       C  0.36368578  0.21536123  0.43418615     0.02880
H1537       H  0.38528748  0.18187695  0.43412983     0.07980
H1538       H  0.35459583  0.22430285  0.43775626     0.06820
N1539       N  0.60854151  0.20744856  0.41928265    -0.27570
N1540       N  0.62227680  0.21568081  0.41706067    -0.35430
C1541       C  0.63311110  0.21123263  0.42866062     0.00770
C1542       C  0.62589665  0.19952189  0.43864831     0.06790
C1543       C  0.61018546  0.19770659  0.43244992    -0.06310
H1544       H  0.64549917  0.21583997  0.42947623     0.07460
H1545       H  0.60065693  0.18971024  0.43696256     0.08660
Cu1546     Cu  0.62532219  0.23240502  0.39814680     0.44170
Cu1547     Cu  0.58883972  0.20848988  0.40323480     0.41990
Cu1548     Cu  0.59211754  0.23470208  0.36785697     0.43880
N1549       N  0.62417865  0.24951724  0.37936049    -0.34960
N1550       N  0.61223319  0.25038244  0.36844906    -0.29210
C1551       C  0.61499184  0.26326867  0.35854126    -0.05310
C1552       C  0.62929175  0.27088644  0.36348613     0.06900
C1553       C  0.63479221  0.26183625  0.37668877     0.00700
H1554       H  0.60698766  0.26698937  0.34867113     0.08350
H1555       H  0.64556081  0.26417868  0.38402281     0.07430
N1556       N  0.57306794  0.21805634  0.37112953    -0.36410
N1557       N  0.57188675  0.20868505  0.38427172    -0.28590
C1558       C  0.55902692  0.19858331  0.38252898    -0.03830
C1559       C  0.55157971  0.20173274  0.36762077     0.04780
C1560       C  0.56091264  0.21413315  0.36066903     0.02880
H1561       H  0.55574501  0.18911312  0.39119826     0.07980
H1562       H  0.55953081  0.21928355  0.34855012     0.06820
C1563       C  0.48840683  0.15958581  0.33473932     0.00280
C1564       C  0.50524198  0.15922041  0.33422786     0.00280
C1565       C  0.33103924  0.16239535  0.48923645     0.00280
C1566       C  0.33105148  0.16205732  0.50600007     0.00280
N1567       N  0.38318508  0.79135200  0.57729571    -0.27570
N1568       N  0.37429951  0.77801561  0.57507613    -0.35430
C1569       C  0.36431761  0.78025661  0.56220408     0.00770
C1570       C  0.36659301  0.79599546  0.55619799     0.06790
C1571       C  0.37879380  0.80256399  0.56608076    -0.06310
H1572       H  0.35627196  0.77087957  0.55750635     0.07460
H1573       H  0.38421037  0.81462192  0.56518040     0.08660
Cu1574     Cu  0.37513911  0.75766859  0.59010281     0.44170
Cu1575     Cu  0.40187260  0.79336193  0.59449578     0.41990
Cu1576     Cu  0.40704030  0.75746873  0.61987213     0.43880
N1577       N  0.37663696  0.74045487  0.60857812    -0.34960
N1578       N  0.38842080  0.74045140  0.61963427    -0.29210
C1579       C  0.38571841  0.72832446  0.63042054    -0.05310
C1580       C  0.37152354  0.72033317  0.62589581     0.06900
C1581       C  0.36606967  0.72831621  0.61200161     0.00700
H1582       H  0.39342143  0.72567901  0.64085871     0.08350
H1583       H  0.35513707  0.72567620  0.60501985     0.07430
N1584       N  0.42330542  0.77675738  0.61940347    -0.36410
N1585       N  0.42131514  0.79023108  0.61065946    -0.28590
C1586       C  0.43344033  0.80079181  0.61434473    -0.03830
C1587       C  0.44362878  0.79348117  0.62583796     0.04780
C1588       C  0.43670563  0.77828345  0.62873820     0.02880
H1589       H  0.43431141  0.81312132  0.60956381     0.07980
H1590       H  0.44075921  0.76917342  0.63746716     0.06820
N1591       N  0.38446242  0.78705607  0.41988030    -0.27570
N1592       N  0.37308949  0.77556281  0.41900011    -0.35430
C1593       C  0.36249914  0.77741745  0.43144513     0.00770
C1594       C  0.36746774  0.79061549  0.44080361     0.06790
C1595       C  0.38132837  0.79656165  0.43296438    -0.06310
H1596       H  0.35194553  0.76968614  0.43350979     0.07460
H1597       H  0.38844361  0.80722037  0.43631019     0.08660
Cu1598     Cu  0.37213230  0.75772620  0.40114606     0.44170
Cu1599     Cu  0.40382189  0.78926720  0.40332303     0.41990
Cu1600     Cu  0.40509173  0.75710012  0.37259686     0.43880
N1601       N  0.37400922  0.74058041  0.38271105    -0.34960
N1602       N  0.38619443  0.74032797  0.37209898    -0.29210
C1603       C  0.38404160  0.72772904  0.36172628    -0.05310
C1604       C  0.36983098  0.71966711  0.36613066     0.06900
C1605       C  0.36377788  0.72812538  0.37946994     0.00700
H1606       H  0.39227958  0.72462026  0.35183715     0.08350
H1607       H  0.35279856  0.72542997  0.38636226     0.07430
N1608       N  0.42230446  0.77552323  0.37447948    -0.36410
N1609       N  0.42194070  0.78749056  0.38537593    -0.28590
C1610       C  0.43433225  0.79793565  0.38217274    -0.03830
C1611       C  0.44291716  0.79213759  0.36868690     0.04780
C1612       C  0.43483736  0.77796138  0.36416839     0.02880
H1613       H  0.43641693  0.80930075  0.38865388     0.07980
H1614       H  0.43748483  0.77027574  0.35371010     0.06820
N1615       N  0.57446330  0.78948295  0.38601937    -0.27570
N1616       N  0.57718514  0.78079117  0.37265188    -0.35430
C1617       C  0.56565461  0.78434039  0.36149647     0.00770
C1618       C  0.55501029  0.79583520  0.36803978     0.06790
C1619       C  0.56088835  0.79856773  0.38377531    -0.06310
H1620       H  0.56519612  0.77901925  0.34938443     0.07460
H1621       H  0.55573601  0.80646696  0.39304353     0.08660
Cu1622     Cu  0.59583457  0.76384097  0.37003006     0.44170
Cu1623     Cu  0.58995737  0.78946953  0.40629459     0.41990
Cu1624     Cu  0.62259711  0.75940550  0.40427917     0.43880
N1625       N  0.61390963  0.74612921  0.37117002    -0.34960
N1626       N  0.62381907  0.74451042  0.38383714    -0.29210
C1627       C  0.63394870  0.73179961  0.38117047    -0.05310
C1628       C  0.63011615  0.72503687  0.36613995     0.06900
C1629       C  0.61735478  0.73441043  0.36012692     0.00700
H1630       H  0.64320559  0.72764075  0.38967867     0.08350
H1631       H  0.61093217  0.73276288  0.34867159     0.07430
N1632       N  0.62019137  0.77641468  0.42289967    -0.36410
N1633       N  0.60858309  0.78767933  0.42364821    -0.28590
C1634       C  0.61181468  0.79781135  0.43627530    -0.03830
C1635       C  0.62605779  0.79253242  0.44393210     0.04780
C1636       C  0.63096050  0.77895391  0.43502434     0.02880
H1637       H  0.60487811  0.80876545  0.43902055     0.07980
H1638       H  0.64203908  0.77188148  0.43671548     0.06820
C1639       C  0.50578281  0.82710046  0.32795937     0.00280
C1640       C  0.48908564  0.82864757  0.32874729     0.00280
C1641       C  0.33490073  0.83266184  0.50446907     0.00280
C1642       C  0.33331470  0.83004479  0.48795669     0.00280
N1643       N  0.57194355  0.78784638  0.60703096    -0.27570
N1644       N  0.57318976  0.77750115  0.61941879    -0.35430
C1645       C  0.56084800  0.78021406  0.62995020     0.00770
C1646       C  0.55120530  0.79278190  0.62387284     0.06790
C1647       C  0.55873858  0.79742351  0.60938575    -0.06310
H1648       H  0.55948672  0.77400824  0.64156683     0.07460
H1649       H  0.55516698  0.80736456  0.60138057     0.08660
Cu1650     Cu  0.59206289  0.76078083  0.62212766     0.44170
Cu1651     Cu  0.58897163  0.78931499  0.58816543     0.41990
Cu1652     Cu  0.62344848  0.76135976  0.59122288     0.43880
N1653       N  0.61175525  0.74481521  0.62194913    -0.34960
N1654       N  0.62325281  0.74497360  0.61057373    -0.29210
C1655       C  0.63403184  0.73289820  0.61365649    -0.05310
C1656       C  0.62903826  0.72476526  0.62764032     0.06900
C1657       C  0.61489328  0.73264507  0.63258994     0.00700
H1658       H  0.64459738  0.73015441  0.60615993     0.08350
H1659       H  0.60730549  0.72964677  0.64301698     0.07430
N1660       N  0.62108569  0.77896937  0.57311854    -0.36410
N1661       N  0.60851863  0.78910795  0.57185782    -0.28590
C1662       C  0.61118808  0.79939191  0.55925271    -0.03830
C1663       C  0.62627092  0.79567260  0.55239425     0.04780
C1664       C  0.63206623  0.78254082  0.56141064     0.02880
H1665       H  0.60289465  0.80905908  0.55560114     0.07980
H1666       H  0.64373328  0.77642528  0.55997070     0.06820
N1667       N  0.60513725  0.92421323  0.70874682    -0.27570
N1668       N  0.61885941  0.92194167  0.71698693    -0.35430
C1669       C  0.62938437  0.93397617  0.71325693     0.00770
C1670       C  0.62206005  0.94452559  0.70212483     0.06790
C1671       C  0.60649388  0.93802101  0.69982496    -0.06310
H1672       H  0.64177800  0.93457063  0.71786933     0.07460
H1673       H  0.59685866  0.94266057  0.69206443     0.08660
Cu1674     Cu  0.62327565  0.90271507  0.73291166     0.44170
Cu1675     Cu  0.58610365  0.90730525  0.70828520     0.41990
Cu1676     Cu  0.59158242  0.87287753  0.73579283     0.43880
N1677       N  0.62400260  0.88347887  0.74939092    -0.34960
N1678       N  0.61221534  0.87245471  0.75040029    -0.29210
C1679       C  0.61572379  0.86187483  0.76249514    -0.05310
C1680       C  0.63039684  0.86653610  0.76950561     0.06900
C1681       C  0.63533847  0.88027713  0.76090124     0.00700
H1682       H  0.60795927  0.85177451  0.76613194     0.08350
H1683       H  0.64617197  0.88759024  0.76302839     0.07430
N1684       N  0.57238029  0.87495483  0.71946316    -0.36410
N1685       N  0.57044735  0.88722915  0.70909227    -0.28590
C1686       C  0.55773975  0.88382740  0.69915777    -0.03830
C1687       C  0.55119710  0.86878781  0.70368767     0.04780
C1688       C  0.56089628  0.86357561  0.71657997     0.02880
H1689       H  0.55413765  0.89134504  0.68887078     0.07980
H1690       H  0.56010537  0.85201231  0.72301422     0.06820
N1691       N  0.70909396  0.92444733  0.60655682    -0.27570
N1692       N  0.72150712  0.92525887  0.61691352    -0.35430
C1693       C  0.71928005  0.93808520  0.62700818     0.00770
C1694       C  0.70478948  0.94578043  0.62286335     0.06790
C1695       C  0.69856766  0.93667271  0.60997118    -0.06310
H1696       H  0.72680614  0.94064152  0.63759452     0.07460
H1697       H  0.68667893  0.93810734  0.60431700     0.08660
Cu1698     Cu  0.73932973  0.90733023  0.61912799     0.44170
Cu1699     Cu  0.70610878  0.90577334  0.58935807     0.41990
Cu1700     Cu  0.73773787  0.87454609  0.59001154     0.43880
N1701       N  0.75469100  0.88715420  0.62009705    -0.34960
N1702       N  0.75415880  0.87509922  0.60931930    -0.29210
C1703       C  0.76558260  0.86387566  0.61320275    -0.05310
C1704       C  0.77365989  0.86913753  0.62711739     0.06900
C1705       C  0.76642883  0.88392162  0.63117557     0.00700
H1706       H  0.76783479  0.85274240  0.60637638     0.08350
H1707       H  0.76951986  0.89181529  0.64134683     0.07430
N1708       N  0.71937287  0.87566133  0.57255761    -0.36410
N1709       N  0.70741562  0.88657183  0.57254565    -0.28590
C1710       C  0.69701668  0.88302203  0.56024151    -0.03830
C1711       C  0.70288324  0.86938020  0.55187732     0.04780
C1712       C  0.71704988  0.86508420  0.56019816     0.02880
H1713       H  0.68575071  0.88958979  0.55796823     0.07980
H1714       H  0.72499196  0.85477498  0.55768763     0.06820
N1715       N  0.28748677  0.10829135  0.57313455    -0.27570
N1716       N  0.27533121  0.11896921  0.57305029    -0.35430
C1717       C  0.27771665  0.12981582  0.56092168     0.00770
C1718       C  0.29231586  0.12604608  0.55317747     0.06790
C1719       C  0.29805246  0.11217294  0.56112500    -0.06310
H1720       H  0.26958970  0.13993869  0.55827672     0.07460
H1721       H  0.30940753  0.10575951  0.55877888     0.08660
Cu1722     Cu  0.25712616  0.11956513  0.59055211     0.44170
Cu1723     Cu  0.28939119  0.08954968  0.59018416     0.41990
Cu1724     Cu  0.25906158  0.08938867  0.62287777     0.43880
N1725       N  0.24145463  0.11929379  0.61036183    -0.34960
N1726       N  0.24208430  0.10829864  0.62222903    -0.29210
C1727       C  0.23028379  0.11165244  0.63321307    -0.05310
C1728       C  0.22190939  0.12543447  0.62796932     0.06900
C1729       C  0.22932062  0.12996251  0.61347315     0.00700
H1730       H  0.22800146  0.10458409  0.64417905     0.08350
H1731       H  0.22613721  0.14022119  0.60570835     0.07430
N1732       N  0.27744266  0.07199104  0.62047718    -0.36410
N1733       N  0.28842653  0.07206537  0.60859454    -0.28590
C1734       C  0.29889282  0.05955933  0.61089772    -0.03830
C1735       C  0.29423234  0.05108527  0.62482290     0.04780
C1736       C  0.28066128  0.05943720  0.63065490     0.02880
H1737       H  0.30936400  0.05704594  0.60318934     0.07980
H1738       H  0.27401084  0.05701554  0.64184031     0.06820
N1739       N  0.38583366  0.91978097  0.70656498    -0.27570
N1740       N  0.37211183  0.91722725  0.71473755    -0.35430
C1741       C  0.36097297  0.92847459  0.71014008     0.00770
C1742       C  0.36794497  0.93861074  0.69842484     0.06790
C1743       C  0.38386093  0.93287185  0.69677139    -0.06310
H1744       H  0.34854206  0.92893851  0.71468019     0.07460
H1745       H  0.39334246  0.93763765  0.68888084     0.08660
Cu1746     Cu  0.36911477  0.89850514  0.73167199     0.44170
Cu1747     Cu  0.40599265  0.90423477  0.70735835     0.41990
Cu1748     Cu  0.40217604  0.86899325  0.73358346     0.43880
N1749       N  0.37030165  0.87970112  0.74873597    -0.34960
N1750       N  0.38239810  0.86894601  0.74936958    -0.29210
C1751       C  0.37996022  0.85879760  0.76208992    -0.05310
C1752       C  0.36567723  0.86342418  0.76987772     0.06900
C1753       C  0.35984442  0.87669884  0.76109477     0.00700
H1754       H  0.38817418  0.84899525  0.76557606     0.08350
H1755       H  0.34897725  0.88383806  0.76364385     0.07430
N1756       N  0.42102957  0.87193313  0.71696037    -0.36410
N1757       N  0.42262897  0.88493969  0.70745756    -0.28590
C1758       C  0.43554537  0.88267550  0.69748355    -0.03830
C1759       C  0.44227540  0.86740908  0.70076513     0.04780
C1760       C  0.43284489  0.86106554  0.71331744     0.02880
H1761       H  0.43943585  0.89132204  0.68823787     0.07980
H1762       H  0.43404259  0.84910140  0.71890913     0.06820
N1763       N  0.42044254  0.10702437  0.70417907    -0.27570
N1764       N  0.42005903  0.11935654  0.71466529    -0.35430
C1765       C  0.43252129  0.12959257  0.71135578     0.00770
C1766       C  0.44129596  0.12333102  0.69826296     0.06790
C1767       C  0.43314703  0.10910945  0.69392314    -0.06310
H1768       H  0.43471662  0.14100393  0.71771850     0.07460
H1769       H  0.43613836  0.10094176  0.68393384     0.08660
Cu1770     Cu  0.40246949  0.12203356  0.73280397     0.44170
Cu1771     Cu  0.40360215  0.08801222  0.70399639     0.41990
Cu1772     Cu  0.37291105  0.08923797  0.73567978     0.43880
N1773       N  0.38384049  0.12141790  0.75005944    -0.34960
N1774       N  0.37304705  0.10939103  0.75103707    -0.29210
C1775       C  0.36272021  0.11242141  0.76347271    -0.05310
C1776       C  0.36725727  0.12703388  0.77071008     0.06900
C1777       C  0.38068624  0.13242727  0.76190798     0.00700
H1778       H  0.35275053  0.10446945  0.76705066     0.08350
H1779       H  0.38772022  0.14345792  0.76400536     0.07430
N1780       N  0.37461141  0.07061238  0.71858633    -0.36410
N1781       N  0.38568456  0.07023805  0.70681640    -0.28590
C1782       C  0.38269071  0.05730348  0.69706836    -0.03830
C1783       C  0.36916761  0.04899090  0.70309566     0.04780
C1784       C  0.36433620  0.05790618  0.71669748     0.02880
H1785       H  0.38929258  0.05475698  0.68588409     0.07980
H1786       H  0.35371760  0.05571410  0.72429882     0.06820
C1787       C  0.33177156  0.98783436  0.66211486     0.00280
C1788       C  0.33136348  0.00456116  0.66337377     0.00280
N1789       N  0.70623021  0.92181708  0.38521438    -0.27570
N1790       N  0.71584049  0.92026300  0.37229965    -0.35430
C1791       C  0.71257628  0.93244708  0.36170375     0.00770
C1792       C  0.70051043  0.94240063  0.36834714     0.06790
C1793       C  0.69667045  0.93510780  0.38319974    -0.06310
H1794       H  0.71828638  0.93364906  0.34983011     0.07460
H1795       H  0.68746709  0.93907033  0.39185746     0.08660
Cu1796     Cu  0.73305248  0.90170910  0.36962047     0.44170
Cu1797     Cu  0.70610825  0.90535581  0.40464466     0.41990
Cu1798     Cu  0.73474571  0.87145509  0.40199193     0.43880
N1799       N  0.75021709  0.88294095  0.37049135    -0.34960
N1800       N  0.75080370  0.87187697  0.38230583    -0.29210
C1801       C  0.76354676  0.86178165  0.37960583    -0.05310
C1802       C  0.77138226  0.86676050  0.36544293     0.06900
C1803       C  0.76259874  0.88019566  0.35997644     0.00700
H1804       H  0.76698628  0.85172758  0.38752668     0.08350
H1805       H  0.76512662  0.88757912  0.34927467     0.07430
N1806       N  0.71800029  0.87428677  0.42089361    -0.36410
N1807       N  0.70767959  0.88672536  0.42194560    -0.28590
C1808       C  0.69819170  0.88466257  0.43523771    -0.03830
C1809       C  0.70281200  0.87029405  0.44305588     0.04780
C1810       C  0.71531990  0.86398367  0.43346925     0.02880
H1811       H  0.68833131  0.89281112  0.43869936     0.07980
H1812       H  0.72152976  0.85238128  0.43506118     0.06820
N1813       N  0.57185454  0.10830584  0.28725349    -0.27570
N1814       N  0.57125692  0.11891169  0.27504478    -0.35430
C1815       C  0.55884060  0.12942404  0.27756351     0.00770
C1816       C  0.55139452  0.12554771  0.29229708     0.06790
C1817       C  0.55988306  0.11193778  0.29796937    -0.06310
H1818       H  0.55563953  0.13922008  0.26925226     0.07460
H1819       H  0.55780499  0.10543519  0.30931980     0.08660
Cu1820     Cu  0.58818678  0.11977660  0.25625698     0.44170
Cu1821     Cu  0.58912214  0.08954756  0.28879297     0.41990
Cu1822     Cu  0.61884835  0.08812541  0.25575132     0.43880
N1823       N  0.60764082  0.11953265  0.24007393    -0.34960
N1824       N  0.61897356  0.10796868  0.23991515    -0.29210
C1825       C  0.63004368  0.11148872  0.22825027    -0.05310
C1826       C  0.62539348  0.12594507  0.22071418     0.06900
C1827       C  0.61115421  0.13071348  0.22851555     0.00700
H1828       H  0.64064277  0.10404344  0.22545744     0.08350
H1829       H  0.60387392  0.14150819  0.22601816     0.07430
N1830       N  0.61725935  0.07054551  0.27399424    -0.36410
N1831       N  0.60689018  0.07134719  0.28639861    -0.28590
C1832       C  0.61054002  0.05935554  0.29711944    -0.03830
C1833       C  0.62357156  0.05038358  0.29098917     0.04780
C1834       C  0.62758917  0.05793064  0.27639433     0.02880
H1835       H  0.60479169  0.05787671  0.30895388     0.07980
H1836       H  0.63811612  0.05531634  0.26879530     0.06820
N1837       N  0.70674568  0.10852500  0.42237249    -0.27570
N1838       N  0.71328922  0.12268615  0.41807695    -0.35430
C1839       C  0.70902941  0.13418173  0.42899356     0.00770
C1840       C  0.69980662  0.12695877  0.44129154     0.06790
C1841       C  0.69844919  0.11064383  0.43646004    -0.06310
H1842       H  0.71214879  0.14695525  0.42761240     0.07460
H1843       H  0.69171413  0.10101353  0.44256205     0.08660
Cu1844     Cu  0.72879519  0.12617191  0.39841332     0.44170
Cu1845     Cu  0.70818808  0.08747524  0.40793749     0.41990
Cu1846     Cu  0.73316074  0.09276288  0.37125837     0.43880
N1847       N  0.74651097  0.12569449  0.38038975    -0.34960
N1848       N  0.74810875  0.11325489  0.37018727    -0.29210
C1849       C  0.76114764  0.11591933  0.36050207    -0.05310
C1850       C  0.76813785  0.13071987  0.36494269     0.06900
C1851       C  0.75854109  0.13659225  0.37759175     0.00700
H1852       H  0.76548642  0.10747212  0.35126734     0.08350
H1853       H  0.76035453  0.14775417  0.38449708     0.07430
N1854       N  0.71821522  0.07269036  0.37561883    -0.36410
N1855       N  0.70954437  0.07030223  0.38905971    -0.28590
C1856       C  0.70097504  0.05627722  0.38740901    -0.03830
C1857       C  0.70447240  0.04943095  0.37221175     0.04780
C1858       C  0.71526935  0.06044152  0.36507923     0.02880
H1859       H  0.69229442  0.05178962  0.39633970     0.07980
H1860       H  0.71989026  0.06025626  0.35269383     0.06820
C1861       C  0.66476005  0.99099277  0.33071138     0.00280
C1862       C  0.66609168  0.00800097  0.33034945     0.00280
N1863       N  0.57526610  0.10974518  0.70517733    -0.27570
N1864       N  0.57679839  0.12290880  0.71440428    -0.35430
C1865       C  0.56432611  0.13316653  0.71128275     0.00770
C1866       C  0.55390474  0.12590453  0.69993737     0.06790
C1867       C  0.56149681  0.11106005  0.69629331    -0.06310
H1868       H  0.56339946  0.14518624  0.71667884     0.07460
H1869       H  0.55753715  0.10186810  0.68764511     0.08660
Cu1870     Cu  0.59495913  0.12573269  0.73183095     0.44170
Cu1871     Cu  0.59255704  0.09116704  0.70433549     0.41990
Cu1872     Cu  0.62182410  0.09070515  0.73737900     0.43880
N1873       N  0.61190060  0.12383407  0.75058015    -0.34960
N1874       N  0.62166109  0.11105965  0.75263993    -0.29210
C1875       C  0.63105780  0.11361207  0.76590435    -0.05310
C1876       C  0.62689157  0.12862925  0.77257097     0.06900
C1877       C  0.61469373  0.13476404  0.76257493     0.00700
H1878       H  0.64015964  0.10509688  0.77040741     0.08350
H1879       H  0.60831505  0.14631392  0.76388426     0.07430
N1880       N  0.62140553  0.07339494  0.71876269    -0.36410
N1881       N  0.61136745  0.07420707  0.70618167    -0.28590
C1882       C  0.61534762  0.06241635  0.69544412    -0.03830
C1883       C  0.62857942  0.05339648  0.70147613     0.04780
C1884       C  0.63174704  0.06077177  0.71657597     0.02880
H1885       H  0.60899613  0.06081376  0.68397482     0.07980
H1886       H  0.64072830  0.05756316  0.72562118     0.06820
N1887       N  0.70193542  0.10994116  0.57537681    -0.27570
N1888       N  0.71219286  0.12244675  0.57594332    -0.35430
C1889       C  0.70840909  0.13303161  0.56392148     0.00770
C1890       C  0.69507839  0.12696749  0.55536088     0.06790
C1891       C  0.69149431  0.11214768  0.56285337    -0.06310
H1892       H  0.71471938  0.14448944  0.56178721     0.07460
H1893       H  0.68198034  0.10356289  0.55955360     0.08660
Cu1894     Cu  0.73092785  0.12467422  0.59292219     0.44170
Cu1895     Cu  0.70187201  0.09088312  0.59215664     0.41990
Cu1896     Cu  0.73515748  0.09089330  0.62120872     0.43880
N1897       N  0.74906243  0.12347900  0.61063943    -0.34960
N1898       N  0.75057993  0.11110645  0.62098305    -0.29210
C1899       C  0.76333309  0.11401331  0.63096662    -0.05310
C1900       C  0.77022379  0.12888162  0.62663930     0.06900
C1901       C  0.76088343  0.13454645  0.61369805     0.00700
H1902       H  0.76730199  0.10586205  0.64062710     0.08350
H1903       H  0.76250531  0.14588042  0.60701894     0.07430
N1904       N  0.71688743  0.07322882  0.62075765    -0.36410
N1905       N  0.70432600  0.07360388  0.61059557    -0.28590
C1906       C  0.69385862  0.06152092  0.61457845    -0.03830
C1907       C  0.70007482  0.05310569  0.62795731     0.04780
C1908       C  0.71489798  0.06072297  0.63127482     0.02880
H1909       H  0.68230753  0.05935262  0.60848406     0.07980
H1910       H  0.72357428  0.05764570  0.64076739     0.06820
C1911       C  0.66350688  0.00375705  0.66358405     0.00280
C1912       C  0.66476559  0.98695352  0.66578587     0.00280
C1913       C  0.50542262  0.15949812  0.66113518     0.00280
C1914       C  0.48884189  0.16171094  0.66255953     0.00280
C1915       C  0.66167057  0.16435644  0.50515181     0.00280
C1916       C  0.66124628  0.16315496  0.48841403     0.00280
C1917       C  0.49008070  0.82746823  0.66687496     0.00280
C1918       C  0.50680211  0.82825633  0.66572422     0.00280
C1919       C  0.66686349  0.83005193  0.48856543     0.00280
C1920       C  0.66757925  0.82893816  0.50531022     0.00280
N1921       N  0.88607384  0.29064141  0.57298587    -0.27570
N1922       N  0.87326485  0.28082219  0.57418168    -0.35430
C1923       C  0.86262498  0.28443343  0.56216194     0.00770
C1924       C  0.86893270  0.29721706  0.55295336     0.06790
C1925       C  0.88396396  0.30065053  0.56007112    -0.06310
H1926       H  0.85091195  0.27847473  0.56052130     0.07460
H1927       H  0.89276060  0.30977651  0.55625991     0.08660
Cu1928     Cu  0.87053495  0.26308019  0.59216369     0.44170
Cu1929     Cu  0.90538000  0.29082232  0.58955571     0.41990
Cu1930     Cu  0.90337920  0.26012300  0.62147254     0.43880
N1931       N  0.87110285  0.24579996  0.61077581    -0.34960
N1932       N  0.88314045  0.24473749  0.62153288    -0.29210
C1933       C  0.88006398  0.23222867  0.63180929    -0.05310
C1934       C  0.86542335  0.22503612  0.62724840     0.06900
C1935       C  0.86007218  0.23395350  0.61387474     0.00700
H1936       H  0.88801483  0.22853709  0.64173302     0.08350
H1937       H  0.84905718  0.23191988  0.60681939     0.07430
N1938       N  0.92201480  0.27731931  0.61955684    -0.36410
N1939       N  0.92261505  0.28879071  0.60815904    -0.28590
C1940       C  0.93541104  0.29872757  0.61121785    -0.03830
C1941       C  0.94347151  0.29309826  0.62508554     0.04780
C1942       C  0.93449315  0.27953547  0.63002902     0.02880
H1943       H  0.93810911  0.30969535  0.60429866     0.07980
H1944       H  0.93653587  0.27210010  0.64079856     0.06820
N1945       N  0.91993704  0.61474423  0.28993867    -0.27570
N1946       N  0.92135117  0.62429582  0.27696239    -0.35430
C1947       C  0.93436171  0.63417084  0.27889441     0.00770
C1948       C  0.94142080  0.63075110  0.29390010     0.06790
C1949       C  0.93206325  0.61824979  0.30049148    -0.06310
H1950       H  0.93818494  0.64335647  0.27014774     0.07460
H1951       H  0.93365242  0.61248138  0.31230750     0.08660
Cu1952     Cu  0.90500313  0.62399697  0.25771453     0.44170
Cu1953     Cu  0.90146867  0.59753317  0.29253558     0.41990
Cu1954     Cu  0.87566414  0.59068738  0.25702650     0.43880
N1955       N  0.88636022  0.62206339  0.24078128    -0.34960
N1956       N  0.87559658  0.60997211  0.24046979    -0.29210
C1957       C  0.86477350  0.61279954  0.22838752    -0.05310
C1958       C  0.86901010  0.62733199  0.22076331     0.06900
C1959       C  0.88274215  0.63285814  0.22891114     0.00700
H1960       H  0.85451741  0.60493682  0.22549608     0.08350
H1961       H  0.88950669  0.64400880  0.22656298     0.07430
N1962       N  0.87645385  0.57516041  0.27711597    -0.36410
N1963       N  0.88477325  0.57852874  0.29052196    -0.28590
C1964       C  0.88141049  0.56717344  0.30190890    -0.03830
C1965       C  0.87092495  0.55548405  0.29526219     0.04780
C1966       C  0.86797572  0.56124097  0.27947268     0.02880
H1967       H  0.88603867  0.56796176  0.31421604     0.07980
H1968       H  0.85999176  0.55597699  0.27034457     0.06820
N1969       N  0.88538632  0.42193773  0.28716148    -0.27570
N1970       N  0.87462452  0.42213674  0.27511808    -0.35430
C1971       C  0.86375245  0.43422019  0.27774471     0.00770
C1972       C  0.86758100  0.44180681  0.29242056     0.06790
C1973       C  0.88151916  0.43378291  0.29791904    -0.06310
H1974       H  0.85367483  0.43701850  0.26964372     0.07460
H1975       H  0.88807744  0.43603768  0.30919354     0.08660
Cu1976     Cu  0.87416300  0.40476566  0.25677753     0.44170
Cu1977     Cu  0.90433437  0.40503103  0.28854150     0.41990
Cu1978     Cu  0.90315329  0.37102343  0.25982733     0.43880
N1979       N  0.87439942  0.38483571  0.24122350    -0.34960
N1980       N  0.88483156  0.37248072  0.24229332    -0.29210
C1981       C  0.88155473  0.36166799  0.23030912    -0.05310
C1982       C  0.86841366  0.36752670  0.22137014     0.06900
C1983       C  0.86417816  0.38220053  0.22863378     0.00700
H1984       H  0.88826993  0.35042247  0.22825766     0.08350
H1985       H  0.85443633  0.39042824  0.22502495     0.07430
N1986       N  0.92101706  0.37377409  0.27766936    -0.36410
N1987       N  0.92167851  0.38643981  0.28771764    -0.28590
C1988       C  0.93466491  0.38468509  0.29763706    -0.03830
C1989       C  0.94264886  0.37018545  0.29374362     0.04780
C1990       C  0.93346762  0.36352114  0.28110099     0.02880
H1991       H  0.93781268  0.39320195  0.30727398     0.07980
H1992       H  0.93525775  0.35179387  0.27521350     0.06820
N1993       N  0.88551577  0.29092008  0.42114257    -0.27570
N1994       N  0.87474290  0.27884463  0.42134233    -0.35430
C1995       C  0.86448175  0.28097977  0.43397697     0.00770
C1996       C  0.86890105  0.29509145  0.44226709     0.06790
C1997       C  0.88226932  0.30115076  0.43368579    -0.06310
H1998       H  0.85415760  0.27310080  0.43658514     0.07460
H1999       H  0.88867743  0.31253126  0.43590050     0.08660
Cu2000     Cu  0.87312671  0.26067431  0.40378406     0.44170
Cu2001     Cu  0.90353556  0.29300843  0.40322201     0.41990
Cu2002     Cu  0.90354332  0.26033862  0.37240907     0.43880
N2003       N  0.87296409  0.24403007  0.38471838    -0.34960
N2004       N  0.88423327  0.24381838  0.37312694    -0.29210
C2005       C  0.88079820  0.23165361  0.36256196    -0.05310
C2006       C  0.86667812  0.22386615  0.36779843     0.06900
C2007       C  0.86203661  0.23204455  0.38186810     0.00700
H2008       H  0.88805580  0.22870785  0.35188771     0.08350
H2009       H  0.85154702  0.22945881  0.38952277     0.07430
N2010       N  0.92074126  0.27904361  0.37348331    -0.36410
N2011       N  0.92054706  0.29108585  0.38431575    -0.28590
C2012       C  0.93277099  0.30157662  0.38083039    -0.03830
C2013       C  0.94099722  0.29596912  0.36708412     0.04780
C2014       C  0.93314671  0.28149841  0.36295098     0.02880
H2015       H  0.93520449  0.31273934  0.38754313     0.07980
H2016       H  0.93604861  0.27339319  0.35289753     0.06820
N2017       N  0.07423489  0.38529347  0.28818639    -0.27570
N2018       N  0.07392961  0.37424701  0.27636782    -0.35430
C2019       C  0.06074957  0.36460905  0.27834118     0.00770
C2020       C  0.05221972  0.36981285  0.29204548     0.06790
C2021       C  0.06128049  0.38286985  0.29806438    -0.06310
H2022       H  0.05784654  0.35427514  0.27057863     0.07460
H2023       H  0.05905227  0.38968788  0.30918742     0.08660
Cu2024     Cu  0.09190896  0.37184147  0.25867223     0.44170
Cu2025     Cu  0.09249052  0.40288168  0.29056880     0.41990
Cu2026     Cu  0.12374818  0.40222324  0.25904537     0.43880
N2027       N  0.11142072  0.37174150  0.24251544    -0.34960
N2028       N  0.12308440  0.38295475  0.24263334    -0.29210
C2029       C  0.13385192  0.37964118  0.23064670    -0.05310
C2030       C  0.12867901  0.36567750  0.22259688     0.06900
C2031       C  0.11443703  0.36096846  0.23043826     0.00700
H2032       H  0.14457037  0.38693779  0.22794916     0.08350
H2033       H  0.10674855  0.35058176  0.22752258     0.07430
N2034       N  0.12273571  0.41954671  0.27748538    -0.36410
N2035       N  0.11160050  0.41965131  0.28921994    -0.28590
C2036       C  0.11510021  0.43182705  0.29975660    -0.03830
C2037       C  0.12919559  0.43965284  0.29447408     0.04780
C2038       C  0.13352871  0.43166609  0.28017221     0.02880
H2039       H  0.10820343  0.43444378  0.31075221     0.07980
H2040       H  0.14394132  0.43422469  0.27241254     0.06820
N2041       N  0.07575988  0.29011957  0.38282675    -0.27570
N2042       N  0.07469237  0.27855501  0.37156983    -0.35430
C2043       C  0.06146362  0.28147870  0.36216647     0.00770
C2044       C  0.05370030  0.29545862  0.36795250     0.06790
C2045       C  0.06321458  0.30058105  0.38101624    -0.06310
H2046       H  0.05819925  0.27437047  0.35148984     0.07460
H2047       H  0.06143323  0.31143750  0.38840460     0.08660
Cu2048     Cu  0.09173684  0.25979052  0.36949773     0.44170
Cu2049     Cu  0.09453489  0.29187377  0.39974887     0.41990
Cu2050     Cu  0.12083650  0.25712495  0.40350065     0.43880
N2051       N  0.11026955  0.24244992  0.37123539    -0.34960
N2052       N  0.12069851  0.24151215  0.38358542    -0.29210
C2053       C  0.13125950  0.22919385  0.38082146    -0.05310
C2054       C  0.12724112  0.22197316  0.36608931     0.06900
C2055       C  0.11388095  0.23064692  0.36032909     0.00700
H2056       H  0.14113069  0.22578477  0.38896341     0.08350
H2057       H  0.10729848  0.22860138  0.34902988     0.07430
N2058       N  0.12131190  0.27655663  0.41968423    -0.36410
N2059       N  0.11255247  0.28993291  0.41743835    -0.28590
C2060       C  0.11669617  0.30101235  0.42882516    -0.03830
C2061       C  0.12860258  0.29429593  0.43901766     0.04780
C2062       C  0.13092901  0.27855846  0.43287107     0.02880
H2063       H  0.11136404  0.31312091  0.42949471     0.07980
H2064       H  0.13878122  0.26902225  0.43754351     0.06820
C2065       C  0.00642102  0.33445009  0.33220462     0.00280
C2066       C  0.98970119  0.33512649  0.33349291     0.00280
N2067       N  0.20715061  0.61245580  0.57695002    -0.27570
N2068       N  0.21950483  0.62288286  0.57651341    -0.35430
C2069       C  0.21743021  0.63330868  0.56397125     0.00770
C2070       C  0.20284737  0.62955867  0.55621932     0.06790
C2071       C  0.19674707  0.61613666  0.56472048    -0.06310
H2072       H  0.22608569  0.64276909  0.56068386     0.07460
H2073       H  0.18552836  0.60955537  0.56223668     0.08660
Cu2074     Cu  0.23858174  0.62283182  0.59297899     0.44170
Cu2075     Cu  0.20564868  0.59330231  0.59377462     0.41990
Cu2076     Cu  0.24096423  0.58890827  0.62076941     0.43880
N2077       N  0.25629108  0.62075693  0.61078009    -0.34960
N2078       N  0.25727040  0.60826309  0.62101689    -0.29210
C2079       C  0.26993727  0.61069170  0.63122619    -0.05310
C2080       C  0.27724269  0.62540891  0.62711482     0.06900
C2081       C  0.26829879  0.63146418  0.61411813     0.00700
H2082       H  0.27349932  0.60238675  0.64091524     0.08350
H2083       H  0.27028081  0.64283359  0.60759897     0.07430
N2084       N  0.22165230  0.57256670  0.62001573    -0.36410
N2085       N  0.20852945  0.57441325  0.61073010    -0.28590
C2086       C  0.19775075  0.56250998  0.61442433    -0.03830
C2087       C  0.20434143  0.55277958  0.62670004     0.04780
C2088       C  0.21964710  0.55940547  0.62969969     0.02880
H2089       H  0.18573310  0.56137093  0.60898448     0.07980
H2090       H  0.22858863  0.55526287  0.63853073     0.06820
N2091       N  0.21088114  0.60844586  0.42215364    -0.27570
N2092       N  0.22055022  0.62131640  0.42048480    -0.35430
C2093       C  0.21698916  0.63232673  0.43222397     0.00770
C2094       C  0.20457338  0.62601983  0.44192713     0.06790
C2095       C  0.20098100  0.61090118  0.43504157    -0.06310
H2096       H  0.22244029  0.64437338  0.43300533     0.07460
H2097       H  0.19140593  0.60253505  0.43875814     0.08660
Cu2098     Cu  0.23743923  0.62367567  0.40175203     0.44170
Cu2099     Cu  0.20998861  0.58897986  0.40575322     0.41990
Cu2100     Cu  0.23358136  0.59448883  0.36882868     0.43880
N2101       N  0.25349970  0.62236091  0.38221493    -0.34960
N2102       N  0.25211353  0.61167841  0.37014112    -0.29210
C2103       C  0.26469158  0.61368201  0.35971429    -0.05310
C2104       C  0.27439701  0.62626904  0.36552170     0.06900
C2105       C  0.26695365  0.63149736  0.37978467     0.00700
H2106       H  0.26663661  0.60645529  0.34878939     0.08350
H2107       H  0.27105397  0.64113391  0.38789209     0.07430
N2108       N  0.21615596  0.57636816  0.37179197    -0.36410
N2109       N  0.20841687  0.57347852  0.38563856    -0.28590
C2110       C  0.19900678  0.56007608  0.38380444    -0.03830
C2111       C  0.20039996  0.55440459  0.36774542     0.04780
C2112       C  0.21156482  0.56521761  0.36067195     0.02880
H2113       H  0.19198865  0.55499107  0.39372092     0.07980
H2114       H  0.21616116  0.56520207  0.34828467     0.06820
N2115       N  0.20595189  0.41995961  0.61037251    -0.27570
N2116       N  0.21756770  0.42024802  0.62156483    -0.35430
C2117       C  0.21465231  0.43264821  0.63200973     0.00770
C2118       C  0.20062490  0.44081448  0.62690780     0.06790
C2119       C  0.19552586  0.43230335  0.61313693    -0.06310
H2120       H  0.22180412  0.43485001  0.64289530     0.07460
H2121       H  0.18474055  0.43459687  0.60581381     0.08660
Cu2122     Cu  0.23626207  0.40328492  0.62209400     0.44170
Cu2123     Cu  0.20350793  0.40194499  0.59290813     0.41990
Cu2124     Cu  0.23328644  0.36962296  0.59262785     0.43880
N2125       N  0.25291897  0.38439698  0.62022415    -0.34960
N2126       N  0.25188431  0.37215647  0.60966616    -0.29210
C2127       C  0.26432922  0.36171150  0.61234623    -0.05310
C2128       C  0.27352362  0.36769152  0.62521963     0.06900
C2129       C  0.26599500  0.38208180  0.62988727     0.00700
H2130       H  0.26627625  0.35042859  0.60567198     0.08350
H2131       H  0.26950507  0.39011998  0.63980626     0.07430
N2132       N  0.21336316  0.37038296  0.57697761    -0.36410
N2133       N  0.20248122  0.38235515  0.57707441    -0.28590
C2134       C  0.19129205  0.37961503  0.56535452    -0.03830
C2135       C  0.19522406  0.36509073  0.55756506     0.04780
C2136       C  0.20937246  0.35964410  0.56518228     0.02880
H2137       H  0.18127152  0.38780613  0.56252663     0.07980
H2138       H  0.21628613  0.34869444  0.56233659     0.06820
N2139       N  0.20779303  0.42286597  0.38784336    -0.27570
N2140       N  0.21704856  0.42135635  0.37466323    -0.35430
C2141       C  0.21364710  0.43364629  0.36426249     0.00770
C2142       C  0.20177037  0.44352710  0.37124842     0.06790
C2143       C  0.19824347  0.43619364  0.38614274    -0.06310
H2144       H  0.21884136  0.43477176  0.35214182     0.07460
H2145       H  0.18899246  0.43992760  0.39485162     0.08660
Cu2146     Cu  0.23303237  0.40211668  0.37063757     0.44170
Cu2147     Cu  0.20717723  0.40574788  0.40666069     0.41990
Cu2148     Cu  0.22842061  0.36775126  0.39741247     0.43880
N2149       N  0.24823291  0.38187200  0.36988043    -0.34960
N2150       N  0.24657619  0.36916590  0.37976683    -0.29210
C2151       C  0.25888096  0.35855453  0.37700954    -0.05310
C2152       C  0.26868201  0.36490811  0.36474555     0.06900
C2153       C  0.26155071  0.37967237  0.36047800     0.00700
H2154       H  0.26072116  0.34724426  0.38367503     0.08350
H2155       H  0.26593700  0.38839534  0.35152407     0.07430
N2156       N  0.21268715  0.37084243  0.41705377    -0.36410
N2157       N  0.20608181  0.38497067  0.42130781    -0.28590
C2158       C  0.19788842  0.38294903  0.43544788    -0.03830
C2159       C  0.19928974  0.36667007  0.44040998     0.04780
C2160       C  0.20848025  0.35939321  0.42805091     0.02880
H2161       H  0.19119840  0.39266011  0.44146444     0.07980
H2162       H  0.21166267  0.34665301  0.42664346     0.06820
C2163       C  0.16365559  0.48873394  0.33244646     0.00280
C2164       C  0.16593111  0.50518806  0.32983412     0.00280
C2165       C  0.16107879  0.33217927  0.48935132     0.00280
C2166       C  0.16329255  0.32915293  0.50572753     0.00280
N2167       N  0.79451826  0.58242500  0.61740537    -0.27570
N2168       N  0.78042882  0.57755729  0.62357831    -0.35430
C2169       C  0.78260817  0.56325188  0.63147544     0.00770
C2170       C  0.79910819  0.55890287  0.63080322     0.06790
C2171       C  0.80611991  0.57154541  0.62160219    -0.06310
H2172       H  0.77259439  0.55659397  0.63685075     0.07460
H2173       H  0.81873692  0.57282947  0.61789067     0.08660
Cu2174     Cu  0.75913777  0.59122237  0.62176795     0.44170
Cu2175     Cu  0.79693570  0.60246913  0.60168990     0.41990
Cu2176     Cu  0.75913715  0.62228763  0.59037770     0.43880
N2177       N  0.74155610  0.60944404  0.62001421    -0.34960
N2178       N  0.74157020  0.62077860  0.60845667    -0.29210
C2179       C  0.72948852  0.63155944  0.61141108    -0.05310
C2180       C  0.72150523  0.62677813  0.62552226     0.06900
C2181       C  0.72943498  0.61270480  0.63065701     0.00700
H2182       H  0.72706028  0.64234549  0.60409883     0.08350
H2183       H  0.72692764  0.60563076  0.64156980     0.07430
N2184       N  0.78049094  0.62473273  0.57714165    -0.36410
N2185       N  0.79463833  0.61874032  0.58209440    -0.28590
C2186       C  0.80629667  0.62342494  0.57149753    -0.03830
C2187       C  0.79920068  0.63271767  0.55899742     0.04780
C2188       C  0.78266576  0.63296951  0.56306325     0.02880
H2189       H  0.81899095  0.61995512  0.57279936     0.07980
H2190       H  0.77266769  0.63824816  0.55626496     0.06820
N2191       N  0.79332945  0.57797775  0.38381437    -0.27570
N2192       N  0.78024307  0.57644726  0.37441531    -0.35430
C2193       C  0.78213041  0.56339347  0.36460230     0.00770
C2194       C  0.79731353  0.55650014  0.36759046     0.06790
C2195       C  0.80398166  0.56592727  0.38004623    -0.06310
H2196       H  0.77327783  0.55959250  0.35553328     0.07460
H2197       H  0.81599189  0.56456267  0.38545424     0.08660
Cu2198     Cu  0.76115691  0.59309727  0.37335992     0.44170
Cu2199     Cu  0.79623253  0.59691470  0.40075039     0.41990
Cu2200     Cu  0.76366046  0.62730392  0.40031426     0.43880
N2201       N  0.74473991  0.61240482  0.37274872    -0.34960
N2202       N  0.74576667  0.62505016  0.38277251    -0.29210
C2203       C  0.73358540  0.63560247  0.37951668    -0.05310
C2204       C  0.72447186  0.62929852  0.36676985     0.06900
C2205       C  0.73187255  0.61459048  0.36272325     0.00700
H2206       H  0.73156885  0.64701030  0.38595369     0.08350
H2207       H  0.72817911  0.60608789  0.35326702     0.07430
N2208       N  0.78239300  0.62714824  0.41712226    -0.36410
N2209       N  0.79450115  0.61640200  0.41721951    -0.28590
C2210       C  0.80445484  0.61986795  0.42986589    -0.03830
C2211       C  0.79830845  0.63345148  0.43808498     0.04780
C2212       C  0.78419200  0.63757021  0.42970265     0.02880
H2213       H  0.81532860  0.61293788  0.43291634     0.07980
H2214       H  0.77557175  0.64717441  0.43268073     0.06820
N2215       N  0.78718833  0.38722325  0.42195954    -0.27570
N2216       N  0.77742271  0.37443269  0.42031447    -0.35430
C2217       C  0.78031988  0.36380900  0.43256745     0.00770
C2218       C  0.79238724  0.37028239  0.44259005     0.06790
C2219       C  0.79654167  0.38508506  0.43533236    -0.06310
H2220       H  0.77458278  0.35191304  0.43361323     0.07460
H2221       H  0.80598920  0.39350316  0.43924073     0.08660
Cu2222     Cu  0.76104826  0.37182453  0.40112581     0.44170
Cu2223     Cu  0.78814335  0.40635831  0.40520483     0.41990
Cu2224     Cu  0.76102629  0.40384140  0.37010291     0.43880
N2225       N  0.74475543  0.37266540  0.38170664    -0.34960
N2226       N  0.74462096  0.38432624  0.37045590    -0.29210
C2227       C  0.73217752  0.38151184  0.36003229    -0.05310
C2228       C  0.72412183  0.36743342  0.36499467     0.06900
C2229       C  0.73243909  0.36214907  0.37874686     0.00700
H2230       H  0.72911291  0.38926635  0.34973827     0.08350
H2231       H  0.72961685  0.35158173  0.38622951     0.07430
N2232       N  0.77865079  0.42202449  0.37303979    -0.36410
N2233       N  0.78831311  0.42302645  0.38597861    -0.28590
C2234       C  0.79876482  0.43558208  0.38390914    -0.03830
C2235       C  0.79576892  0.44271571  0.36881273     0.04780
C2236       C  0.78277689  0.43390870  0.36236654     0.02880
H2237       H  0.80817057  0.43894206  0.39258921     0.07980
H2238       H  0.77720836  0.43556338  0.35046985     0.06820
N2239       N  0.79115537  0.38441746  0.57595367    -0.27570
N2240       N  0.77826407  0.37471286  0.57476825    -0.35430
C2241       C  0.77982866  0.36530567  0.56138573     0.00770
C2242       C  0.79444905  0.36912129  0.55364452     0.06790
C2243       C  0.80137865  0.38122644  0.56340363    -0.06310
H2244       H  0.77108251  0.35602939  0.55780287     0.07460
H2245       H  0.81324042  0.38689480  0.56190617     0.08660
Cu2246     Cu  0.75962867  0.37333479  0.59195899     0.44170
Cu2247     Cu  0.79405510  0.40153143  0.59466870     0.41990
Cu2248     Cu  0.76133647  0.40221175  0.62486883     0.43880
N2249       N  0.74317732  0.37329893  0.61129028    -0.34960
N2250       N  0.74388094  0.38399575  0.62340029    -0.29210
C2251       C  0.73177670  0.38087475  0.63408175    -0.05310
C2252       C  0.72302751  0.36754348  0.62842670     0.06900
C2253       C  0.73058047  0.36301865  0.61395250     0.00700
H2254       H  0.72955375  0.38780747  0.64514194     0.08350
H2255       H  0.72719063  0.35302903  0.60594215     0.07430
N2256       N  0.78019811  0.41902593  0.62423148    -0.36410
N2257       N  0.79230096  0.41868361  0.61349855    -0.28590
C2258       C  0.80254171  0.43118194  0.61670793    -0.03830
C2259       C  0.79665779  0.43972531  0.63015749     0.04780
C2260       C  0.78235683  0.43173624  0.63446184     0.02880
H2261       H  0.81356284  0.43378165  0.60984204     0.07980
H2262       H  0.77402089  0.43493279  0.64423178     0.06820
C2263       C  0.82887476  0.33108862  0.48854632     0.00280
C2264       C  0.82840145  0.33009969  0.50524797     0.00280
C2265       C  0.83305622  0.50711155  0.33087876     0.00280
C2266       C  0.83306585  0.49026490  0.33146089     0.00280
N2267       N  0.88721425  0.57435125  0.70621295    -0.27570
N2268       N  0.87642298  0.57398596  0.71824198    -0.35430
C2269       C  0.86605497  0.56143375  0.71580003     0.00770
C2270       C  0.87024657  0.55371981  0.70127302     0.06790
C2271       C  0.88385902  0.56217069  0.69567263    -0.06310
H2272       H  0.85608203  0.55838618  0.72393754     0.07460
H2273       H  0.89054030  0.55995624  0.68445804     0.08660
Cu2274     Cu  0.87523858  0.59155224  0.73646620     0.44170
Cu2275     Cu  0.90564652  0.59172534  0.70439259     0.41990
Cu2276     Cu  0.90444944  0.62485582  0.73388974     0.43880
N2277       N  0.87537035  0.61145236  0.75216534    -0.34960
N2278       N  0.88603720  0.62360181  0.75128037    -0.29210
C2279       C  0.88281972  0.63445959  0.76323659    -0.05310
C2280       C  0.86945559  0.62887234  0.77199320     0.06900
C2281       C  0.86502712  0.61428628  0.76463587     0.00700
H2282       H  0.88970702  0.64557664  0.76536726     0.08350
H2283       H  0.85508888  0.60625304  0.76811874     0.07430
N2284       N  0.92185569  0.62296756  0.71554568    -0.36410
N2285       N  0.92248196  0.61073435  0.70497056    -0.28590
C2286       C  0.93505359  0.61322661  0.69464693    -0.03830
C2287       C  0.94253351  0.62792181  0.69870824     0.04780
C2288       C  0.93392249  0.63363046  0.71214686     0.02880
H2289       H  0.93833977  0.60499424  0.68481575     0.07980
H2290       H  0.93598553  0.64495951  0.71870533     0.06820
N2291       N  0.88653782  0.70650908  0.57574776    -0.27570
N2292       N  0.87660479  0.71923975  0.57445138    -0.35430
C2293       C  0.86683758  0.71711573  0.56140660     0.00770
C2294       C  0.87049212  0.70212817  0.55432901     0.06790
C2295       C  0.88320800  0.69586398  0.56363926    -0.06310
H2296       H  0.85754129  0.72575458  0.55761996     0.07460
H2297       H  0.88925445  0.68417037  0.56204508     0.08660
Cu2298     Cu  0.87539721  0.73823590  0.59122039     0.44170
Cu2299     Cu  0.90411594  0.70411402  0.59390208     0.41990
Cu2300     Cu  0.90562090  0.73783576  0.62282468     0.43880
N2301       N  0.87535209  0.75465668  0.61054333    -0.34960
N2302       N  0.88653055  0.75449173  0.62221949    -0.29210
C2303       C  0.88313623  0.76639389  0.63308019    -0.05310
C2304       C  0.86912103  0.77441761  0.62797694     0.06900
C2305       C  0.86449584  0.76665628  0.61365743     0.00700
H2306       H  0.89032870  0.76896406  0.64388995     0.08350
H2307       H  0.85403132  0.76949174  0.60605560     0.07430
N2308       N  0.92286443  0.71928755  0.62171450    -0.36410
N2309       N  0.92207333  0.70664518  0.61165296    -0.28590
C2310       C  0.93460275  0.69642684  0.61487277    -0.03830
C2311       C  0.94393346  0.70311499  0.62738895     0.04780
C2312       C  0.93598019  0.71756324  0.63144277     0.02880
H2313       H  0.93639178  0.68474409  0.60889522     0.07980
H2314       H  0.93925280  0.72607929  0.64103934     0.06820
N2315       N  0.88684828  0.70677889  0.42028482    -0.27570
N2316       N  0.87382063  0.71630879  0.41906203    -0.35430
C2317       C  0.86311170  0.71223890  0.43090317     0.00770
C2318       C  0.86965688  0.69941360  0.43990652     0.06790
C2319       C  0.88482633  0.69645897  0.43293773    -0.06310
H2320       H  0.85120273  0.71782453  0.43249111     0.07460
H2321       H  0.89365648  0.68727028  0.43656363     0.08660
Cu2322     Cu  0.87109603  0.73385158  0.40083881     0.44170
Cu2323     Cu  0.90617886  0.70712528  0.40389571     0.41990
Cu2324     Cu  0.90251660  0.73393867  0.36905285     0.43880
N2325       N  0.87183962  0.75047914  0.38159682    -0.34960
N2326       N  0.88319047  0.75045434  0.37004673    -0.29210
C2327       C  0.88040511  0.76303808  0.35977715    -0.05310
C2328       C  0.86667381  0.77138611  0.36512558     0.06900
C2329       C  0.86154229  0.76308527  0.37896480     0.00700
H2330       H  0.88798350  0.76601441  0.34933699     0.08350
H2331       H  0.85122097  0.76609229  0.38669695     0.07430
N2332       N  0.92152377  0.71728433  0.37195919    -0.36410
N2333       N  0.92300018  0.70776066  0.38494921    -0.28590
C2334       C  0.93631889  0.69825821  0.38318696    -0.03830
C2335       C  0.94372956  0.70200218  0.36839916     0.04780
C2336       C  0.93385749  0.71402622  0.36153458     0.02880
H2337       H  0.94010313  0.68900772  0.39188872     0.07980
H2338       H  0.93514259  0.71957144  0.34958451     0.06820
N2339       N  0.07452080  0.60937246  0.28744886    -0.27570
N2340       N  0.07634705  0.62237025  0.27796189    -0.35430
C2341       C  0.06466170  0.63341413  0.28154687     0.00770
C2342       C  0.05506712  0.62719025  0.29402397     0.06790
C2343       C  0.06155133  0.61180942  0.29730068    -0.06310
H2344       H  0.06371496  0.64543086  0.27602103     0.07460
H2345       H  0.05750905  0.60322996  0.30654378     0.08660
Cu2346     Cu  0.09527073  0.62509728  0.26139408     0.44170
Cu2347     Cu  0.09084618  0.58973471  0.28784603     0.41990
Cu2348     Cu  0.12656105  0.59375167  0.26195549     0.43880
N2349       N  0.11497407  0.62463088  0.24553809    -0.34960
N2350       N  0.12643124  0.61318898  0.24578352    -0.29210
C2351       C  0.13704787  0.61594721  0.23353769    -0.05310
C2352       C  0.13197491  0.62976535  0.22518574     0.06900
C2353       C  0.11797804  0.63499417  0.23311866     0.00700
H2354       H  0.14743993  0.60822438  0.23071769     0.08350
H2355       H  0.11031960  0.64532768  0.22990891     0.07430
N2356       N  0.12337443  0.57482492  0.27842021    -0.36410
N2357       N  0.11024023  0.57312753  0.28771212    -0.28590
C2358       C  0.11234763  0.56003478  0.29750258    -0.03830
C2359       C  0.12764442  0.55333043  0.29436584     0.04780
C2360       C  0.13417526  0.56293402  0.28205686     0.02880
H2361       H  0.10360072  0.55604282  0.30660032     0.07980
H2362       H  0.14622427  0.56183248  0.27666947     0.06820
N2363       N  0.07661783  0.70474233  0.38638973    -0.27570
N2364       N  0.08009965  0.71236821  0.37260344    -0.35430
C2365       C  0.06881926  0.70848532  0.36136575     0.00770
C2366       C  0.05729654  0.69798793  0.36831289     0.06790
C2367       C  0.06269525  0.69618221  0.38440629    -0.06310
H2368       H  0.06914832  0.71317069  0.34901164     0.07460
H2369       H  0.05703363  0.68951587  0.39426187     0.08660
Cu2370     Cu  0.09883060  0.72918619  0.36986691     0.44170
Cu2371     Cu  0.09169468  0.70548199  0.40679680     0.41990
Cu2372     Cu  0.12360035  0.73631990  0.40536790     0.43880
N2373       N  0.11584617  0.74788780  0.37133658    -0.34960
N2374       N  0.12496717  0.75048285  0.38442930    -0.29210
C2375       C  0.13453682  0.76360899  0.38180282    -0.05310
C2376       C  0.13112524  0.76965707  0.36637511     0.06900
C2377       C  0.11920648  0.75942706  0.36007220     0.00700
H2378       H  0.14311362  0.76853337  0.39060174     0.08350
H2379       H  0.11331929  0.76034748  0.34825168     0.07430
N2380       N  0.12160030  0.71892325  0.42365595    -0.36410
N2381       N  0.11037572  0.70727425  0.42390609    -0.28590
C2382       C  0.11398840  0.69663937  0.43595704    -0.03830
C2383       C  0.12822000  0.70179882  0.44361666     0.04780
C2384       C  0.13245777  0.71618909  0.43568351     0.02880
H2385       H  0.10725385  0.68548316  0.43837360     0.07980
H2386       H  0.14301676  0.72382514  0.43797326     0.06820
C2387       C  0.99088236  0.66424143  0.33159726     0.00280
C2388       C  0.00739574  0.66627270  0.32944841     0.00280
N2389       N  0.07471113  0.28893520  0.61079445    -0.27570
N2390       N  0.07513235  0.27830102  0.62299514    -0.35430
C2391       C  0.06230576  0.28106068  0.63295994     0.00770
C2392       C  0.05316866  0.29392384  0.62664800     0.06790
C2393       C  0.06153653  0.29863997  0.61263421    -0.06310
H2394       H  0.06029902  0.27466901  0.64437594     0.07460
H2395       H  0.05852209  0.30871602  0.60456903     0.08660
Cu2396     Cu  0.09336074  0.26081420  0.62590886     0.44170
Cu2397     Cu  0.09247020  0.29055864  0.59259018     0.41990
Cu2398     Cu  0.12379180  0.25957371  0.59382707     0.43880
N2399       N  0.11237507  0.24395638  0.62516043    -0.34960
N2400       N  0.12347101  0.24358847  0.61339313    -0.29210
C2401       C  0.13384744  0.23110443  0.61611231    -0.05310
C2402       C  0.12901895  0.22318713  0.63024346     0.06900
C2403       C  0.11538137  0.23164518  0.63569417     0.00700
H2404       H  0.14398732  0.22790392  0.60821927     0.08350
H2405       H  0.10804498  0.22894000  0.64637785     0.07430
N2406       N  0.12212896  0.27690122  0.57550618    -0.36410
N2407       N  0.11102864  0.28866323  0.57524102    -0.28590
C2408       C  0.11383966  0.29833232  0.56219687    -0.03830
C2409       C  0.12714057  0.29211128  0.55357819     0.04780
C2410       C  0.13211771  0.27859121  0.56256917     0.02880
H2411       H  0.10694339  0.30931761  0.55951454     0.07980
H2412       H  0.14238519  0.27061018  0.56003684     0.06820
N2413       N  0.88841627  0.42334643  0.70794281    -0.27570
N2414       N  0.87566686  0.42264552  0.71787166    -0.35430
C2415       C  0.86524471  0.43488099  0.71411261     0.00770
C2416       C  0.87180800  0.44378645  0.70124040     0.06790
C2417       C  0.88644336  0.43600422  0.69760950    -0.06310
H2418       H  0.85338944  0.43661130  0.71975083     0.07460
H2419       H  0.89476949  0.43895939  0.68774572     0.08660
Cu2420     Cu  0.87265141  0.40423892  0.73513624     0.44170
Cu2421     Cu  0.90726644  0.40625253  0.70779983     0.41990
Cu2422     Cu  0.90408567  0.37223219  0.73561602     0.43880
N2423       N  0.87293395  0.38465817  0.75134727    -0.34960
N2424       N  0.88429192  0.37308893  0.75149648    -0.29210
C2425       C  0.88108213  0.36255811  0.76373937    -0.05310
C2426       C  0.86707015  0.36776140  0.77167702     0.06900
C2427       C  0.86220903  0.38177941  0.76350003     0.00700
H2428       H  0.88855810  0.35203642  0.76676462     0.08350
H2429       H  0.85178762  0.38947133  0.76629520     0.07430
N2430       N  0.92294033  0.37462807  0.71878820    -0.36410
N2431       N  0.92412891  0.38721151  0.70868033    -0.28590
C2432       C  0.93704231  0.38487410  0.69876095    -0.03830
C2433       C  0.94446812  0.37014618  0.70285166     0.04780
C2434       C  0.93507838  0.36393790  0.71555487     0.02880
H2435       H  0.94042152  0.39302415  0.68887829     0.07980
H2436       H  0.93642175  0.35213384  0.72143433     0.06820
N2437       N  0.07346573  0.38610892  0.70504974    -0.27570
N2438       N  0.07323322  0.37530924  0.71710343    -0.35430
C2439       C  0.06038326  0.36526204  0.71508893     0.00770
C2440       C  0.05199941  0.36987720  0.70108431     0.06790
C2441       C  0.06078702  0.38308738  0.69495832    -0.06310
H2442       H  0.05763376  0.35501504  0.72302939     0.07460
H2443       H  0.05857964  0.38960177  0.68364704     0.08660
Cu2444     Cu  0.09095723  0.37357825  0.73515442     0.44170
Cu2445     Cu  0.09131091  0.40415726  0.70281413     0.41990
Cu2446     Cu  0.12196851  0.40449433  0.73533275     0.43880
N2447       N  0.11027097  0.37362599  0.75157210    -0.34960
N2448       N  0.12171745  0.38505804  0.75168254    -0.29210
C2449       C  0.13251007  0.38171087  0.76366273    -0.05310
C2450       C  0.12757757  0.36748338  0.77145924     0.06900
C2451       C  0.11344584  0.36268343  0.76346900     0.00700
H2452       H  0.14312319  0.38911045  0.76648512     0.08350
H2453       H  0.10597734  0.35206349  0.76611509     0.07430
N2454       N  0.12061365  0.42183841  0.71682661    -0.36410
N2455       N  0.10984237  0.42153529  0.70475351    -0.28590
C2456       C  0.11323450  0.43381882  0.69428461    -0.03830
C2457       C  0.12686398  0.44216830  0.69996705     0.04780
C2458       C  0.13101550  0.43435987  0.71443220     0.02880
H2459       H  0.10663061  0.43613056  0.68304390     0.07980
H2460       H  0.14110362  0.43727418  0.72248145     0.06820
C2461       C  0.98909234  0.33117220  0.66384301     0.00280
C2462       C  0.00586951  0.33137765  0.66369568     0.00280
N2463       N  0.07496077  0.70656971  0.60859742    -0.27570
N2464       N  0.07671211  0.71621188  0.62146023    -0.35430
C2465       C  0.06422948  0.71365008  0.63185785     0.00770
C2466       C  0.05394144  0.70195271  0.62516192     0.06790
C2467       C  0.06126677  0.69762398  0.61047169    -0.06310
H2468       H  0.06313503  0.71940719  0.64372484     0.07460
H2469       H  0.05717386  0.68834541  0.60195345     0.08660
Cu2470     Cu  0.09615791  0.73211424  0.62455227     0.44170
Cu2471     Cu  0.09190658  0.70525304  0.58969498     0.41990
Cu2472     Cu  0.12723996  0.73197395  0.59305697     0.43880
N2473       N  0.11560317  0.74830236  0.62395908    -0.34960
N2474       N  0.12693250  0.74832724  0.61241026    -0.29210
C2475       C  0.13729810  0.76083070  0.61509415    -0.05310
C2476       C  0.13218271  0.76906559  0.62896652     0.06900
C2477       C  0.11842797  0.76078895  0.63429516     0.00700
H2478       H  0.14756220  0.76388761  0.60730813     0.08350
H2479       H  0.11079995  0.76381064  0.64468657     0.07430
N2480       N  0.12440362  0.71463978  0.57479153    -0.36410
N2481       N  0.11144179  0.70504568  0.57342960    -0.28590
C2482       C  0.11372425  0.69474784  0.56079422    -0.03830
C2483       C  0.12897008  0.69783660  0.55402849     0.04780
C2484       C  0.13528756  0.71066857  0.56310282     0.02880
H2485       H  0.10508150  0.68541717  0.55711111     0.07980
H2486       H  0.14722216  0.71625009  0.56175502     0.06820
N2487       N  0.07395048  0.60935480  0.70594089    -0.27570
N2488       N  0.07426407  0.62050304  0.71764103    -0.35430
C2489       C  0.06192942  0.63110349  0.71533113     0.00770
C2490       C  0.05335813  0.62649420  0.70145557     0.06790
C2491       C  0.06145300  0.61268668  0.69573139    -0.06310
H2492       H  0.05974946  0.64176622  0.72289120     0.07460
H2493       H  0.05898953  0.60602361  0.68456546     0.08660
Cu2494     Cu  0.09236072  0.62201799  0.73521385     0.44170
Cu2495     Cu  0.09123806  0.59086771  0.70419850     0.41990
Cu2496     Cu  0.12489637  0.59226322  0.73354938     0.43880
N2497       N  0.11212933  0.62202067  0.75095242    -0.34960
N2498       N  0.12405118  0.61108410  0.75038392    -0.29210
C2499       C  0.13491683  0.61435056  0.76227889    -0.05310
C2500       C  0.12954071  0.62801976  0.77068615     0.06900
C2501       C  0.11508677  0.63259123  0.76319187     0.00700
H2502       H  0.14585429  0.60725217  0.76463737     0.08350
H2503       H  0.10721947  0.64275349  0.76643627     0.07430
N2504       N  0.12273438  0.57488839  0.71533461    -0.36410
N2505       N  0.11039831  0.57425091  0.70488712    -0.28590
C2506       C  0.11305568  0.56200136  0.69425909    -0.03830
C2507       C  0.12794182  0.55480400  0.69797187     0.04780
C2508       C  0.13362843  0.56313572  0.71154667     0.02880
H2509       H  0.10496283  0.55893852  0.68424797     0.07980
H2510       H  0.14518109  0.56130232  0.71775618     0.06820
C2511       C  0.99114763  0.66762572  0.66614876     0.00280
C2512       C  0.00781244  0.66678862  0.66501605     0.00280
C2513       C  0.16377844  0.50619347  0.66099803     0.00280
C2514       C  0.16152215  0.48956652  0.66038998     0.00280
C2515       C  0.16426308  0.66084395  0.48894530     0.00280
C2516       C  0.16604208  0.66184811  0.50559605     0.00280
C2517       C  0.83753257  0.50641994  0.66000755     0.00280
C2518       C  0.83627758  0.48961728  0.66002097     0.00280
C2519       C  0.83677453  0.66250324  0.50655493     0.00280
C2520       C  0.83451004  0.66374358  0.48997023     0.00280
N2521       N  0.80757084  0.84397286  0.64144855    -0.27570
N2522       N  0.80742394  0.85548181  0.65283441    -0.35430
C2523       C  0.79521608  0.86607516  0.64962411     0.00770
C2524       C  0.78731297  0.86096111  0.63555836     0.06790
C2525       C  0.79543578  0.84690038  0.63072097    -0.06310
H2526       H  0.79247367  0.87682388  0.65687232     0.07460
H2527       H  0.79295204  0.83951504  0.62001628     0.08660
Cu2528     Cu  0.82420032  0.85663231  0.67184850     0.44170
Cu2529     Cu  0.82476214  0.82531615  0.64046175     0.41990
Cu2530     Cu  0.85633963  0.82599011  0.67149408     0.43880
N2531       N  0.84283399  0.85556963  0.68905455    -0.34960
N2532       N  0.85467770  0.84451685  0.68878781    -0.29210
C2533       C  0.86500146  0.84742269  0.70126815    -0.05310
C2534       C  0.85933787  0.86090197  0.70982850     0.06900
C2535       C  0.84525550  0.86574686  0.70177323     0.00700
H2536       H  0.87582050  0.84023663  0.70389270     0.08350
H2537       H  0.83743792  0.87601675  0.70479355     0.07430
N2538       N  0.85535339  0.80880371  0.65282913    -0.36410
N2539       N  0.84382048  0.80858106  0.64148397    -0.28590
C2540       C  0.84685554  0.79625335  0.63099328    -0.03830
C2541       C  0.86096698  0.78834203  0.63599368     0.04780
C2542       C  0.86602068  0.79659216  0.64988347     0.02880
H2543       H  0.83941582  0.79339341  0.62042629     0.07980
H2544       H  0.87676106  0.79406445  0.65720369     0.06820
N2545       N  0.80756087  0.84357255  0.35336478    -0.27570
N2546       N  0.80737442  0.85492418  0.34180891    -0.35430
C2547       C  0.79448178  0.86490196  0.34428916     0.00770
C2548       C  0.78618777  0.85956660  0.35806435     0.06790
C2549       C  0.79482551  0.84603635  0.36350499    -0.06310
H2550       H  0.79139700  0.87526378  0.33662184     0.07460
H2551       H  0.79205804  0.83848804  0.37403147     0.08660
Cu2552     Cu  0.82460046  0.85624123  0.32312574     0.44170
Cu2553     Cu  0.82494757  0.82507825  0.35479182     0.41990
Cu2554     Cu  0.85586314  0.82467475  0.32309374     0.43880
N2555       N  0.84292935  0.85452474  0.30555312    -0.34960
N2556       N  0.85429392  0.84297282  0.30552922    -0.29210
C2557       C  0.86409371  0.84510303  0.29246650    -0.05310
C2558       C  0.85863895  0.85864296  0.28385562     0.06900
C2559       C  0.84522086  0.86432788  0.29250808     0.00700
H2560       H  0.87438713  0.83732088  0.28945492     0.08350
H2561       H  0.83760559  0.87475626  0.28950908     0.07430
N2562       N  0.85464195  0.80746228  0.34174251    -0.36410
N2563       N  0.84334309  0.80759534  0.35332691    -0.28590
C2564       C  0.84585595  0.79479967  0.36341050    -0.03830
C2565       C  0.85938092  0.78621579  0.35789129     0.04780
C2566       C  0.86464874  0.79458655  0.34414534     0.02880
H2567       H  0.83836856  0.79197067  0.37395672     0.07980
H2568       H  0.87497102  0.79155375  0.33642484     0.06820
N2569       N  0.88343090  0.20540487  0.92044095    -0.27570
N2570       N  0.87346101  0.21814014  0.92118192    -0.35430
C2571       C  0.86355569  0.21646726  0.93416600     0.00770
C2572       C  0.86732758  0.20193310  0.94210375     0.06790
C2573       C  0.87992943  0.19515985  0.93288873    -0.06310
H2574       H  0.85401462  0.22509408  0.93734859     0.07460
H2575       H  0.88577942  0.18341111  0.93469828     0.08660
Cu2576     Cu  0.87250353  0.23674842  0.90400657     0.44170
Cu2577     Cu  0.90147369  0.20290345  0.90263110     0.41990
Cu2578     Cu  0.90366438  0.23684723  0.87356231     0.43880
N2579       N  0.87296614  0.25338649  0.88491608    -0.34960
N2580       N  0.88450940  0.25339975  0.87360353    -0.29210
C2581       C  0.88149010  0.26549613  0.86284398    -0.05310
C2582       C  0.86735193  0.27347319  0.86766586     0.06900
C2583       C  0.86225393  0.26547785  0.88169336     0.00700
H2584       H  0.88906350  0.26828288  0.85234809     0.08350
H2585       H  0.85159398  0.26824120  0.88904777     0.07430
N2586       N  0.92101755  0.21848394  0.87536968    -0.36410
N2587       N  0.92000488  0.20580972  0.88539110    -0.28590
C2588       C  0.93273542  0.19573339  0.88253260    -0.03830
C2589       C  0.94243183  0.20254417  0.87033390     0.04780
C2590       C  0.93446342  0.21691798  0.86605990     0.02880
H2591       H  0.93438240  0.18401030  0.88847670     0.07980
H2592       H  0.93790981  0.22545479  0.85653586     0.06820
N2593       N  0.20562495  0.91788910  0.88061721    -0.27570
N2594       N  0.21742192  0.91807478  0.86959109    -0.35430
C2595       C  0.21494966  0.93069845  0.85923438     0.00770
C2596       C  0.20062717  0.93871529  0.86374422     0.06790
C2597       C  0.19517452  0.93016589  0.87741914    -0.06310
H2598       H  0.22311332  0.93379000  0.84930375     0.07460
H2599       H  0.18426298  0.93257739  0.88452016     0.08660
Cu2600     Cu  0.23554393  0.90034291  0.86903511     0.44170
Cu2601     Cu  0.20445720  0.90124670  0.89985400     0.41990
Cu2602     Cu  0.23284656  0.86749603  0.89992876     0.43880
N2603       N  0.25113299  0.88035969  0.87035773    -0.34960
N2604       N  0.25021264  0.86848563  0.88136260    -0.29210
C2605       C  0.26239458  0.85770940  0.87863906    -0.05310
C2606       C  0.27131821  0.86307021  0.86529058     0.06900
C2607       C  0.26383139  0.87741550  0.86034419     0.00700
H2608       H  0.26463231  0.84685871  0.88591669     0.08350
H2609       H  0.26740472  0.88525802  0.85028562     0.07430
N2610       N  0.21530559  0.87090226  0.91802980    -0.36410
N2611       N  0.20532425  0.88363639  0.91822850    -0.28590
C2612       C  0.19564111  0.88261968  0.93147961    -0.03830
C2613       C  0.19958616  0.86850390  0.94014133     0.04780
C2614       C  0.21203999  0.86130239  0.93103992     0.02880
H2615       H  0.18611378  0.89136732  0.93435857     0.07980
H2616       H  0.21789978  0.84963404  0.93327452     0.06820
N2617       N  0.92255622  0.88669773  0.20628724    -0.27570
N2618       N  0.91943615  0.87267784  0.21373750    -0.35430
C2619       C  0.93097674  0.86168607  0.20960211     0.00770
C2620       C  0.94243106  0.86917654  0.19945244     0.06790
C2621       C  0.93643321  0.88505936  0.19754913    -0.06310
H2622       H  0.93055209  0.84902721  0.21338992     0.07460
H2623       H  0.94154669  0.89472711  0.19009105     0.08660
Cu2624     Cu  0.90008395  0.86908143  0.22986962     0.44170
Cu2625     Cu  0.90677528  0.90682550  0.20689304     0.41990
Cu2626     Cu  0.87001066  0.90105943  0.23110959     0.43880
N2627       N  0.88141886  0.86992441  0.24714311    -0.34960
N2628       N  0.87033956  0.88172734  0.24752583    -0.29210
C2629       C  0.86045002  0.87942482  0.26047982    -0.05310
C2630       C  0.86557285  0.86551311  0.26868979     0.06900
C2631       C  0.87889157  0.85978336  0.25989488     0.00700
H2632       H  0.85049433  0.88749594  0.26384688     0.08350
H2633       H  0.88638728  0.84921796  0.26271198     0.07430
N2634       N  0.87348476  0.92058222  0.21528805    -0.36410
N2635       N  0.88711684  0.92319354  0.20699711    -0.28590
C2636       C  0.88532459  0.93697733  0.19810454    -0.03830
C2637       C  0.86980112  0.94342601  0.20092749     0.04780
C2638       C  0.86263220  0.93244105  0.21173140     0.02880
H2639       H  0.89453970  0.94170763  0.18986222     0.07980
H2640       H  0.85020112  0.93257304  0.21623904     0.06820
N2641       N  0.78997388  0.92213883  0.88281924    -0.27570
N2642       N  0.77771748  0.92240787  0.87230411    -0.35430
C2643       C  0.78002269  0.93471597  0.86162938     0.00770
C2644       C  0.79469276  0.94238204  0.86534704     0.06790
C2645       C  0.80053831  0.93417151  0.87900784    -0.06310
H2646       H  0.77164278  0.93770483  0.85183909     0.07460
H2647       H  0.81183775  0.93652929  0.88549186     0.08660
Cu2648     Cu  0.75931156  0.90508358  0.87212710     0.44170
Cu2649     Cu  0.79163349  0.90519688  0.90161597     0.41990
Cu2650     Cu  0.76103741  0.87276599  0.90273114     0.43880
N2651       N  0.74362371  0.88525688  0.87266181    -0.34960
N2652       N  0.74417607  0.87341420  0.88370181    -0.29210
C2653       C  0.73240651  0.86239419  0.88029465    -0.05310
C2654       C  0.72414775  0.86758990  0.86644235     0.06900
C2655       C  0.73158371  0.88209305  0.86193742     0.00700
H2656       H  0.73008549  0.85141970  0.88735419     0.08350
H2657       H  0.72851403  0.88980966  0.85161674     0.07430
N2658       N  0.77940824  0.87552079  0.92010308    -0.36410
N2659       N  0.79044602  0.88735590  0.91961014    -0.28590
C2660       C  0.80091968  0.88544105  0.93212598    -0.03830
C2661       C  0.79625728  0.87180819  0.94105786     0.04780
C2662       C  0.78262550  0.86573786  0.93297966     0.02880
H2663       H  0.81144723  0.89317711  0.93430540     0.07980
H2664       H  0.77596738  0.85463466  0.93579765     0.06820
N2665       N  0.92080130  0.79133465  0.88529577    -0.27570
N2666       N  0.92248100  0.77791789  0.87639479    -0.35430
C2667       C  0.93518166  0.77978346  0.86616629     0.00770
C2668       C  0.94157630  0.79535067  0.86824615     0.06790
C2669       C  0.93232070  0.80223306  0.88071720    -0.06310
H2670       H  0.93900109  0.77064015  0.85738841     0.07460
H2671       H  0.93339733  0.81451855  0.88557561     0.08660
Cu2672     Cu  0.90600005  0.75869428  0.87609449     0.44170
Cu2673     Cu  0.90241353  0.79408848  0.90271581     0.41990
Cu2674     Cu  0.87180615  0.76145345  0.90311645     0.43880
N2675       N  0.88628621  0.74284195  0.87500428    -0.34960
N2676       N  0.87359580  0.74393016  0.88495911    -0.29210
C2677       C  0.86268586  0.73224195  0.88107505    -0.05310
C2678       C  0.86880714  0.72342966  0.86798485     0.06900
C2679       C  0.88377806  0.73048165  0.86442028     0.00700
H2680       H  0.85113896  0.73037829  0.88728088     0.08350
H2681       H  0.89221673  0.72694032  0.85485023     0.07430
N2682       N  0.87309222  0.77991170  0.92038331    -0.36410
N2683       N  0.88399383  0.79188168  0.92018899    -0.28590
C2684       C  0.88129076  0.80172673  0.93310869    -0.03830
C2685       C  0.86823144  0.79551139  0.94201414     0.04780
C2686       C  0.86324398  0.78178705  0.93341876     0.02880
H2687       H  0.88814165  0.81278199  0.93560973     0.07980
H2688       H  0.85315061  0.77373749  0.93638128     0.06820
N2689       N  0.92029578  0.88574263  0.79093252    -0.27570
N2690       N  0.92181173  0.87647625  0.77780310    -0.35430
C2691       C  0.93519783  0.86703794  0.77939216     0.00770
C2692       C  0.94257357  0.87027520  0.79441185     0.06790
C2693       C  0.93240078  0.88205923  0.80144879    -0.06310
H2694       H  0.93890713  0.85813004  0.77034267     0.07460
H2695       H  0.93311834  0.88725206  0.81354889     0.08660
Cu2696     Cu  0.90442777  0.87548393  0.75937159     0.44170
Cu2697     Cu  0.90206040  0.90333506  0.79366519     0.41990
Cu2698     Cu  0.86912748  0.90199167  0.76403681     0.43880
N2699       N  0.88422103  0.87484082  0.74405182    -0.34960
N2700       N  0.87132666  0.88450463  0.74571640    -0.29210
C2701       C  0.86049961  0.88107558  0.73379531    -0.05310
C2702       C  0.86685375  0.86857850  0.72427532     0.06900
C2703       C  0.88187921  0.86490213  0.73114249     0.00700
H2704       H  0.84886572  0.88721484  0.73221588     0.08350
H2705       H  0.89054191  0.85575847  0.72702043     0.07430
N2706       N  0.87111821  0.91982424  0.78204070    -0.36410
N2707       N  0.88347702  0.92074060  0.79240929    -0.28590
C2708       C  0.88166465  0.93426697  0.80164949    -0.03830
C2709       C  0.86742269  0.94233979  0.79694838     0.04780
C2710       C  0.86095461  0.93252247  0.78465301     0.02880
H2711       H  0.89012620  0.93789715  0.81115275     0.07980
H2712       H  0.84951999  0.93415324  0.77822884     0.06820
N2713       N  0.07224411  0.20696073  0.10689758    -0.27570
N2714       N  0.07286507  0.21705710  0.11952012    -0.35430
C2715       C  0.06055788  0.21342223  0.12985019     0.00770
C2716       C  0.05176902  0.20044569  0.12334398     0.06790
C2717       C  0.05963766  0.19659643  0.10887169    -0.06310
H2718       H  0.05866002  0.21923954  0.14159082     0.07460
H2719       H  0.05673607  0.18663847  0.10062978     0.08660
Cu2720     Cu  0.09132280  0.23427021  0.12255861     0.44170
Cu2721     Cu  0.08923547  0.20670411  0.08819268     0.41990
Cu2722     Cu  0.12441089  0.23270639  0.09241973     0.43880
N2723       N  0.11133345  0.24995611  0.12243123    -0.34960
N2724       N  0.12330891  0.24931433  0.11154828    -0.29210
C2725       C  0.13407081  0.26136841  0.11467423    -0.05310
C2726       C  0.12862279  0.26999799  0.12815881     0.06900
C2727       C  0.11419985  0.26243580  0.13279057     0.00700
H2728       H  0.14494846  0.26376400  0.10751533     0.08350
H2729       H  0.10625347  0.26584954  0.14281665     0.07430
N2730       N  0.12155519  0.21618304  0.07340889    -0.36410
N2731       N  0.10836459  0.20700916  0.07168234    -0.28590
C2732       C  0.11017034  0.19741404  0.05847261    -0.03830
C2733       C  0.12524545  0.20067913  0.05143146     0.04780
C2734       C  0.13219618  0.21256867  0.06137685     0.02880
H2735       H  0.10135140  0.18831979  0.05460520     0.07980
H2736       H  0.14438256  0.21765216  0.06048166     0.06820
N2737       N  0.20438016  0.07356315  0.10915120    -0.27570
N2738       N  0.21640090  0.07330523  0.11996652    -0.35430
C2739       C  0.21452168  0.06027096  0.12982357     0.00770
C2740       C  0.20066793  0.05176897  0.12501834     0.06790
C2741       C  0.19445129  0.06070391  0.11195838    -0.06310
H2742       H  0.22250386  0.05741265  0.13999295     0.07460
H2743       H  0.18322435  0.05841141  0.10534157     0.08660
Cu2744     Cu  0.23438377  0.09103477  0.12172625     0.44170
Cu2745     Cu  0.20205393  0.09148978  0.09117046     0.41990
Cu2746     Cu  0.23469531  0.12184927  0.09048808     0.43880
N2747       N  0.25087082  0.11023596  0.12140813    -0.34960
N2748       N  0.25101477  0.12161383  0.10990166    -0.29210
C2749       C  0.26308077  0.13234843  0.11310986    -0.05310
C2750       C  0.27090083  0.12742487  0.12730266     0.06900
C2751       C  0.26284336  0.11337487  0.13224258     0.00700
H2752       H  0.26597230  0.14288782  0.10561440     0.08350
H2753       H  0.26549070  0.10593606  0.14287868     0.07430
N2754       N  0.21621248  0.12052746  0.07316051    -0.36410
N2755       N  0.20403518  0.10987004  0.07360797    -0.28590
C2756       C  0.19360136  0.11322172  0.06129779    -0.03830
C2757       C  0.19942084  0.12670932  0.05276878     0.04780
C2758       C  0.21393380  0.13080520  0.06051433     0.02880
H2759       H  0.18230849  0.10667489  0.05906409     0.07980
H2760       H  0.22211318  0.14075900  0.05745525     0.06820
N2761       N  0.10872510  0.07436113  0.20489947    -0.27570
N2762       N  0.12073764  0.07432032  0.21572786    -0.35430
C2763       C  0.13064480  0.06147512  0.21275749     0.00770
C2764       C  0.12450259  0.05288064  0.19949348     0.06790
C2765       C  0.11065762  0.06152021  0.19478550    -0.06310
H2766       H  0.14190948  0.05906494  0.21928218     0.07460
H2767       H  0.10282451  0.05894746  0.18442913     0.08660
Cu2768     Cu  0.12358199  0.09226233  0.23342276     0.44170
Cu2769     Cu  0.09076087  0.09238304  0.20364025     0.41990
Cu2770     Cu  0.09250527  0.12427873  0.23400005     0.43880
N2771       N  0.12325849  0.11144194  0.25001557    -0.34960
N2772       N  0.11196696  0.12306439  0.25017888    -0.29210
C2773       C  0.11509310  0.13343185  0.26255596    -0.05310
C2774       C  0.12898503  0.12805361  0.27057342     0.06900
C2775       C  0.13386625  0.11410198  0.26231181     0.00700
H2776       H  0.10767123  0.14399163  0.26557597     0.08350
H2777       H  0.14424844  0.10635270  0.26509819     0.07430
N2778       N  0.07419966  0.12278466  0.21655203    -0.36410
N2779       N  0.07371569  0.11124654  0.20523208    -0.28590
C2780       C  0.06073083  0.11391838  0.19548261    -0.03830
C2781       C  0.05239641  0.12763855  0.20110775     0.04780
C2782       C  0.06147032  0.13302561  0.21439154     0.02880
H2783       H  0.05788188  0.10663920  0.18480649     0.07980
H2784       H  0.05910519  0.14370751  0.22186647     0.06820
C2785       C  0.00570713  0.16141117  0.16053932     0.00280
C2786       C  0.98898501  0.16055188  0.15893082     0.00280
C2787       C  0.16175310  0.00585860  0.16150898     0.00280
C2788       C  0.16106265  0.98910644  0.16156134     0.00280
C2789       C  0.16043162  0.16097448  0.00462856     0.00280
C2790       C  0.16085039  0.16248600  0.98796742     0.00280
N2791       N  0.91635560  0.79305770  0.11459564    -0.27570
N2792       N  0.91965628  0.77920538  0.12226650    -0.35430
C2793       C  0.93338116  0.78105497  0.13115825     0.00770
C2794       C  0.93891291  0.79705020  0.12939160     0.06790
C2795       C  0.92776229  0.80419461  0.11865770    -0.06310
H2796       H  0.93899513  0.77122711  0.13799796     0.07460
H2797       H  0.92792576  0.81661646  0.11403461     0.08660
Cu2798     Cu  0.90480587  0.75875061  0.12098063     0.44170
Cu2799     Cu  0.89728963  0.79567143  0.09785021     0.41990
Cu2800     Cu  0.87333505  0.75921634  0.08988517     0.43880
N2801       N  0.88618284  0.74166309  0.11962611    -0.34960
N2802       N  0.87466036  0.74181445  0.10827412    -0.29210
C2803       C  0.86385588  0.72980273  0.11144902    -0.05310
C2804       C  0.86884339  0.72175122  0.12547754     0.06900
C2805       C  0.88303707  0.72956219  0.13033027     0.00700
H2806       H  0.85299510  0.72738161  0.10427820     0.08350
H2807       H  0.89035056  0.72692196  0.14104577     0.07430
N2808       N  0.87232142  0.78003716  0.07545330    -0.36410
N2809       N  0.88023503  0.79368889  0.07898846    -0.28590
C2810       C  0.87616570  0.80519002  0.06794082    -0.03830
C2811       C  0.86517760  0.79851248  0.05676995     0.04780
C2812       C  0.86328591  0.78238910  0.06189388     0.02880
H2813       H  0.88094777  0.81754639  0.06805863     0.07980
H2814       H  0.85613537  0.77286345  0.05616262     0.06820
N2815       N  0.78697515  0.92280832  0.10759277    -0.27570
N2816       N  0.78074960  0.91914534  0.12204514    -0.35430
C2817       C  0.78612587  0.93003618  0.13310056     0.00770
C2818       C  0.79627183  0.94126174  0.12534240     0.06790
C2819       C  0.79622393  0.93637601  0.10903749    -0.06310
H2820       H  0.78311914  0.92952617  0.14597802     0.07460
H2821       H  0.80249247  0.94204583  0.09888174     0.08660
Cu2822     Cu  0.76511523  0.89966046  0.12629906     0.44170
Cu2823     Cu  0.78469042  0.90768912  0.08726031     0.41990
Cu2824     Cu  0.76471375  0.86867917  0.09546013     0.43880
N2825       N  0.74858507  0.88046743  0.12631722    -0.34960
N2826       N  0.74846841  0.86895309  0.11495639    -0.29210
C2827       C  0.73570615  0.85889710  0.11763729    -0.05310
C2828       C  0.72738646  0.86440835  0.13132727     0.06900
C2829       C  0.73590379  0.87808579  0.13653913     0.00700
H2830       H  0.73245346  0.84865496  0.10989235     0.08350
H2831       H  0.73287072  0.88599943  0.14671641     0.07430
N2832       N  0.77946031  0.87313654  0.07528392    -0.36410
N2833       N  0.78571482  0.88760704  0.07164813    -0.28590
C2834       C  0.79420743  0.88634814  0.05760558    -0.03830
C2835       C  0.79336519  0.87025767  0.05205139     0.04780
C2836       C  0.78409288  0.86224868  0.06386119     0.02880
H2837       H  0.80094194  0.89637257  0.05217681     0.07980
H2838       H  0.78140486  0.84931877  0.06464035     0.06820
C2839       C  0.83455461  0.83552350  0.98869794     0.00280
C2840       C  0.83527733  0.83741098  0.00538121     0.00280
N2841       N  0.88706863  0.20932515  0.07012715    -0.27570
N2842       N  0.87423486  0.21905990  0.07172113    -0.35430
C2843       C  0.86362641  0.21606495  0.05952925     0.00770
C2844       C  0.87008871  0.20393085  0.04960476     0.06790
C2845       C  0.88491731  0.19984164  0.05682711    -0.06310
H2846       H  0.85167431  0.22168446  0.05852569     0.07460
H2847       H  0.89324817  0.19025137  0.05304679     0.08660
Cu2848     Cu  0.87093714  0.23507512  0.09102319     0.44170
Cu2849     Cu  0.90601049  0.20828084  0.08714195     0.41990
Cu2850     Cu  0.89916469  0.23143431  0.12460046     0.43880
N2851       N  0.87057635  0.25038934  0.11113996    -0.34960
N2852       N  0.88095485  0.24915112  0.12348148    -0.29210
C2853       C  0.87807788  0.26141560  0.13410323    -0.05310
C2854       C  0.86523823  0.27073868  0.12813566     0.06900
C2855       C  0.86075827  0.26337967  0.11359032     0.00700
H2856       H  0.88500169  0.26352602  0.14518457     0.08350
H2857       H  0.85132310  0.26736535  0.10519604     0.07430
N2858       N  0.91833716  0.21505791  0.12129372    -0.36410
N2859       N  0.92149935  0.20751943  0.10735557    -0.28590
C2860       C  0.93530074  0.19868663  0.10908789    -0.03830
C2861       C  0.94119458  0.20061809  0.12495668     0.04780
C2862       C  0.92978047  0.21088764  0.13234549     0.02880
H2863       H  0.94044808  0.19118094  0.09948115     0.07980
H2864       H  0.92934293  0.21475945  0.14495808     0.06820
N2865       N  0.91967906  0.11306722  0.20691011    -0.27570
N2866       N  0.91996623  0.12429566  0.21845556    -0.35430
C2867       C  0.93240250  0.13469520  0.21555390     0.00770
C2868       C  0.94042697  0.12994191  0.20121646     0.06790
C2869       C  0.93170858  0.11610484  0.19622556    -0.06310
H2870       H  0.93490922  0.14489305  0.22346674     0.07460
H2871       H  0.93350994  0.10878669  0.18537432     0.08660
Cu2872     Cu  0.90233515  0.12540327  0.23657187     0.44170
Cu2873     Cu  0.90270408  0.09437204  0.20571778     0.41990
Cu2874     Cu  0.86742854  0.09731297  0.23168516     0.43880
N2875       N  0.88217019  0.12471123  0.25187011    -0.34960
N2876       N  0.86956644  0.11466471  0.25018688    -0.29210
C2877       C  0.85883691  0.11751284  0.26235525    -0.05310
C2878       C  0.86497077  0.12998095  0.27203369     0.06900
C2879       C  0.87973796  0.13426049  0.26502968     0.00700
H2880       H  0.84742768  0.11099306  0.26399901     0.08350
H2881       H  0.88817888  0.14357103  0.26921159     0.07430
N2882       N  0.86996586  0.07968723  0.21350801    -0.36410
N2883       N  0.88346890  0.07801638  0.20482258    -0.28590
C2884       C  0.88196902  0.06500286  0.19488988    -0.03830
C2885       C  0.86644816  0.05836401  0.19686177     0.04780
C2886       C  0.85929683  0.06799681  0.20898132     0.02880
H2887       H  0.89167351  0.06076377  0.18699792     0.07980
H2888       H  0.84715976  0.06673103  0.21410584     0.06820
N2889       N  0.78643126  0.10919879  0.07161755    -0.27570
N2890       N  0.77510918  0.12074601  0.07229362    -0.35430
C2891       C  0.77751722  0.13143384  0.06005052     0.00770
C2892       C  0.79109392  0.12654730  0.05113620     0.06790
C2893       C  0.79649755  0.11239937  0.05893603    -0.06310
H2894       H  0.77031100  0.14241631  0.05824731     0.07460
H2895       H  0.80745398  0.10547487  0.05621067     0.08660
Cu2896     Cu  0.75817245  0.12302977  0.09095537     0.44170
Cu2897     Cu  0.78811126  0.09056325  0.08900885     0.41990
Cu2898     Cu  0.76288297  0.09631941  0.12555218     0.43880
N2899       N  0.74326252  0.12405051  0.11136873    -0.34960
N2900       N  0.74496133  0.11423856  0.12412356    -0.29210
C2901       C  0.73302113  0.11748034  0.13498473    -0.05310
C2902       C  0.72343981  0.13000200  0.12876289     0.06900
C2903       C  0.73030555  0.13391015  0.11380740     0.00700
H2904       H  0.73133029  0.11103999  0.14643279     0.08350
H2905       H  0.72601554  0.14298782  0.10515893     0.07430
N2906       N  0.77927139  0.07717994  0.12244603    -0.36410
N2907       N  0.78766068  0.07452219  0.10888437    -0.28590
C2908       C  0.79622503  0.06054927  0.11061780    -0.03830
C2909       C  0.79321041  0.05403377  0.12607232     0.04780
C2910       C  0.78257176  0.06520125  0.13325389     0.02880
H2911       H  0.80427689  0.05567587  0.10131389     0.07980
H2912       H  0.77786260  0.06505070  0.14559746     0.06820
C2913       C  0.82722654  0.16782493  0.98947083     0.00280
C2914       C  0.82851246  0.16696156  0.00615624     0.00280
C2915       C  0.83297135  0.99001105  0.16210476     0.00280
C2916       C  0.83194004  0.00680249  0.16186043     0.00280
N2917       N  0.78712772  0.11024695  0.92191671    -0.27570
N2918       N  0.77700179  0.12285329  0.92082506    -0.35430
C2919       C  0.78060193  0.13371868  0.93264762     0.00770
C2920       C  0.79371626  0.12780078  0.94159501     0.06790
C2921       C  0.79738139  0.11276092  0.93455792    -0.06310
H2922       H  0.77443733  0.14534509  0.93428330     0.07460
H2923       H  0.80693465  0.10432954  0.93817696     0.08660
Cu2924     Cu  0.75901399  0.12524100  0.90311354     0.44170
Cu2925     Cu  0.78729916  0.09065157  0.90555542     0.41990
Cu2926     Cu  0.75610469  0.09208766  0.87426422     0.43880
N2927       N  0.74182003  0.12447987  0.88450763    -0.34960
N2928       N  0.74079453  0.11226486  0.87394428    -0.29210
C2929       C  0.72840646  0.11519419  0.86353546    -0.05310
C2930       C  0.72125710  0.12994299  0.86779584     0.06900
C2931       C  0.73005586  0.13551951  0.88113679     0.00700
H2932       H  0.72479611  0.10708365  0.85371152     0.08350
H2933       H  0.72800283  0.14668260  0.88797714     0.07430
N2934       N  0.77342552  0.07367559  0.87586313    -0.36410
N2935       N  0.78511084  0.07321593  0.88704617    -0.28590
C2936       C  0.79540568  0.06082320  0.88344983    -0.03830
C2937       C  0.78970051  0.05298059  0.86955179     0.04780
C2938       C  0.77587652  0.06157236  0.86498803     0.02880
H2939       H  0.80671267  0.05832536  0.88987400     0.07980
H2940       H  0.76881975  0.05990470  0.85391308     0.06820
N2941       N  0.92064855  0.10973482  0.78616309    -0.27570
N2942       N  0.91926424  0.12265921  0.77649086    -0.35430
C2943       C  0.93070129  0.13375063  0.78069150     0.00770
C2944       C  0.93960031  0.12746134  0.79364321     0.06790
C2945       C  0.93291864  0.11226404  0.79681000    -0.06310
H2946       H  0.93190576  0.14579652  0.77528464     0.07460
H2947       H  0.93621658  0.10399090  0.80661971     0.08660
Cu2948     Cu  0.90093555  0.12512552  0.75909548     0.44170
Cu2949     Cu  0.90494739  0.08987239  0.78558926     0.41990
Cu2950     Cu  0.86985882  0.09324070  0.75899355     0.43880
N2951       N  0.88137070  0.12451681  0.74293154    -0.34960
N2952       N  0.87001142  0.11297023  0.74291585    -0.29210
C2953       C  0.85945351  0.11589042  0.73061678    -0.05310
C2954       C  0.86443035  0.12992664  0.72252083     0.06900
C2955       C  0.87833368  0.13508517  0.73066931     0.00700
H2956       H  0.84910727  0.10818447  0.72762624     0.08350
H2957       H  0.88587209  0.14558387  0.72775262     0.07430
N2958       N  0.87358710  0.07383848  0.77504001    -0.36410
N2959       N  0.88670358  0.07235988  0.78436360    -0.28590
C2960       C  0.88529543  0.05876291  0.79355034    -0.03830
C2961       C  0.87056009  0.05119548  0.78985216     0.04780
C2962       C  0.86340441  0.06129360  0.77817987     0.02880
H2963       H  0.89407135  0.05506149  0.80274734     0.07980
H2964       H  0.85128608  0.06017963  0.77299116     0.06820
C2965       C  0.83144504  0.99276514  0.83174585     0.00280
C2966       C  0.82967170  0.00954256  0.82910108     0.00280
N2967       N  0.20602598  0.07426573  0.88349625    -0.27570
N2968       N  0.21828288  0.07269348  0.87317232    -0.35430
C2969       C  0.21538722  0.05979141  0.86333086     0.00770
C2970       C  0.20020053  0.05295735  0.86732061     0.06790
C2971       C  0.19486212  0.06269633  0.88033604    -0.06310
H2972       H  0.22394704  0.05607061  0.85406779     0.07460
H2973       H  0.18360405  0.06178042  0.88717423     0.08660
Cu2974     Cu  0.23729650  0.08947598  0.87232396     0.44170
Cu2975     Cu  0.20490336  0.09192287  0.90160137     0.41990
Cu2976     Cu  0.23394509  0.12462067  0.90080380     0.43880
N2977       N  0.25274590  0.10964003  0.87246939    -0.34960
N2978       N  0.25151201  0.12224919  0.88259403    -0.29210
C2979       C  0.26337425  0.13311218  0.87908539    -0.05310
C2980       C  0.27242690  0.12708620  0.86612881     0.06900
C2981       C  0.26536082  0.11221840  0.86222621     0.00700
H2982       H  0.26521421  0.14456685  0.88548776     0.08350
H2983       H  0.26908540  0.10385652  0.85265289     0.07430
N2984       N  0.21550168  0.12305873  0.91819060    -0.36410
N2985       N  0.20523839  0.11057959  0.91870848    -0.28590
C2986       C  0.19470068  0.11277742  0.93110836    -0.03830
C2987       C  0.19809970  0.12765784  0.93853256     0.04780
C2988       C  0.21157334  0.13371773  0.93014962     0.02880
H2989       H  0.18505504  0.10426023  0.93420601     0.07980
H2990       H  0.21770970  0.14527887  0.93222243     0.06820
N2991       N  0.07229206  0.20806707  0.88616810    -0.27570
N2992       N  0.07568427  0.21476936  0.87184881    -0.35430
C2993       C  0.06428121  0.21020681  0.86094663     0.00770
C2994       C  0.05296832  0.20012224  0.86863784     0.06790
C2995       C  0.05838715  0.19931983  0.88477226    -0.06310
H2996       H  0.06444252  0.21379407  0.84820749     0.07460
H2997       H  0.05278357  0.19289689  0.89486805     0.08660
Cu2998     Cu  0.09529691  0.23021506  0.86746758     0.44170
Cu2999     Cu  0.08783024  0.20948665  0.90638648     0.41990
Cu3000     Cu  0.12637962  0.23010209  0.89787345     0.43880
N3001       N  0.11467686  0.24652881  0.86721533    -0.34960
N3002       N  0.12625624  0.24643525  0.87848761    -0.29210
C3003       C  0.13645232  0.25908879  0.87581980    -0.05310
C3004       C  0.13097978  0.26756121  0.86220870     0.06900
C3005       C  0.11716636  0.25924442  0.85703474     0.00700
H3006       H  0.14676135  0.26217086  0.88353042     0.08350
H3007       H  0.10922351  0.26246220  0.84694191     0.07430
N3008       N  0.12220534  0.21567034  0.91829248    -0.36410
N3009       N  0.10794565  0.20909505  0.92211863    -0.28590
C3010       C  0.10948092  0.20114528  0.93648823    -0.03830
C3011       C  0.12553026  0.20274228  0.94203131     0.04780
C3012       C  0.13320710  0.21179736  0.92985179     0.02880
H3013       H  0.09969283  0.19429885  0.94218746     0.07980
H3014       H  0.14601784  0.21486954  0.92891339     0.06820
N3015       N  0.10867900  0.07520564  0.78991957    -0.27570
N3016       N  0.12298637  0.07797193  0.78294640    -0.35430
C3017       C  0.13387118  0.06695332  0.78852405     0.00770
C3018       C  0.12609135  0.05663240  0.79959786     0.06790
C3019       C  0.10997691  0.06210226  0.79978133    -0.06310
H3020       H  0.14660071  0.06669512  0.78490631     0.07460
H3021       H  0.09978892  0.05710177  0.80653166     0.08660
Cu3022     Cu  0.12689342  0.09632604  0.76589339     0.44170
Cu3023     Cu  0.08872108  0.09080816  0.78793785     0.41990
Cu3024     Cu  0.09502149  0.12707291  0.76384814     0.43880
N3025       N  0.12597813  0.11454058  0.74827645    -0.34960
N3026       N  0.11433015  0.12577612  0.74764380    -0.29210
C3027       C  0.11673169  0.13533738  0.73449403    -0.05310
C3028       C  0.13051940  0.12981431  0.72643207     0.06900
C3029       C  0.13610954  0.11662647  0.73547646     0.00700
H3030       H  0.10880970  0.14534695  0.73092093     0.08350
H3031       H  0.14657688  0.10894311  0.73283231     0.07430
N3032       N  0.07598325  0.12455822  0.78022769    -0.36410
N3033       N  0.07332606  0.11103560  0.78870850    -0.28590
C3034       C  0.06040709  0.11343278  0.79860957    -0.03830
C3035       C  0.05482995  0.12934278  0.79643077     0.04780
C3036       C  0.06488306  0.13593722  0.78450952     0.02880
H3037       H  0.05568148  0.10434702  0.80700443     0.07980
H3038       H  0.06451009  0.14828393  0.77968708     0.06820
C3039       C  0.15812870  0.98777868  0.83545717     0.00280
C3040       C  0.15831656  0.00469120  0.83576782     0.00280
C3041       C  0.98733149  0.16373784  0.83238087     0.00280
C3042       C  0.00416338  0.16524685  0.83092329     0.00280
N3043       N  0.11353206  0.91297404  0.79317729    -0.27570
N3044       N  0.12469772  0.91489891  0.78162359    -0.35430
C3045       C  0.13479968  0.92717150  0.78601553     0.00770
C3046       C  0.12986771  0.93294467  0.80117757     0.06790
C3047       C  0.11628992  0.92376343  0.80524794    -0.06310
H3048       H  0.14488292  0.93164185  0.77868541     0.07460
H3049       H  0.10859765  0.92521205  0.81592631     0.08660
Cu3050     Cu  0.12554659  0.90052360  0.76062411     0.44170
Cu3051     Cu  0.09424343  0.89675653  0.79190540     0.41990
Cu3052     Cu  0.09220424  0.87085233  0.75688998     0.43880
N3053       N  0.12398219  0.88297619  0.74223376    -0.34960
N3054       N  0.11196438  0.87217223  0.74108467    -0.29210
C3055       C  0.11487183  0.86219640  0.72833708    -0.05310
C3056       C  0.12938134  0.86693864  0.72107359     0.06900
C3057       C  0.13484033  0.88015719  0.73016278     0.00700
H3058       H  0.10701914  0.85216102  0.72471828     0.08350
H3059       H  0.14598088  0.88707302  0.72830671     0.07430
N3060       N  0.07428232  0.87124042  0.77478614    -0.36410
N3061       N  0.07518386  0.88072852  0.78782674    -0.28590
C3062       C  0.06242923  0.87756708  0.79769981    -0.03830
C3063       C  0.05286451  0.86559508  0.79044437     0.04780
C3064       C  0.06087440  0.86177742  0.77597666     0.02880
H3065       H  0.06076020  0.88298190  0.80966084     0.07980
H3066       H  0.05752925  0.85240193  0.76723953     0.06820
N3067       N  0.11193916  0.78908708  0.91961738    -0.27570
N3068       N  0.12286477  0.77715410  0.91984131    -0.35430
C3069       C  0.13338861  0.77967261  0.93223874     0.00770
C3070       C  0.12911443  0.79413516  0.94004622     0.06790
C3071       C  0.11535005  0.79964331  0.93174823    -0.06310
H3072       H  0.14339375  0.77153516  0.93523310     0.07460
H3073       H  0.10846828  0.81071709  0.93415374     0.08660
Cu3074     Cu  0.12364116  0.75875558  0.90253372     0.44170
Cu3075     Cu  0.09294600  0.79055546  0.90278023     0.41990
Cu3076     Cu  0.09306438  0.76042639  0.87030683     0.43880
N3077       N  0.12298416  0.74284660  0.88291410    -0.34960
N3078       N  0.11191754  0.74340369  0.87112263    -0.29210
C3079       C  0.11504957  0.73137023  0.86031811    -0.05310
C3080       C  0.12874284  0.72291270  0.86560470     0.06900
C3081       C  0.13346162  0.73051610  0.87993239     0.00700
H3082       H  0.10785980  0.72895732  0.84947018     0.08350
H3083       H  0.14370877  0.72731807  0.88768569     0.07430
N3084       N  0.07546323  0.77862759  0.87254829    -0.36410
N3085       N  0.07529158  0.78951810  0.88451509    -0.28590
C3086       C  0.06262175  0.79981128  0.88223461    -0.03830
C3087       C  0.05456889  0.79536802  0.86797259     0.04780
C3088       C  0.06297506  0.78176323  0.86229400     0.02880
H3089       H  0.05971795  0.80995907  0.89023343     0.07980
H3090       H  0.06055137  0.77499368  0.85117513     0.06820
C3091       C  0.98949801  0.82909991  0.82814018     0.00280
C3092       C  0.00621691  0.82766569  0.82760801     0.00280
N3093       N  0.20690470  0.91972444  0.11166318    -0.27570
N3094       N  0.21667535  0.91819987  0.12442547    -0.35430
C3095       C  0.21313689  0.93005480  0.13533348     0.00770
C3096       C  0.20069068  0.93985260  0.12901173     0.06790
C3097       C  0.19711154  0.93273655  0.11396264    -0.06310
H3098       H  0.21877865  0.93082314  0.14724356     0.07460
H3099       H  0.18781599  0.93651751  0.10533392     0.08660
Cu3100     Cu  0.23410659  0.89977679  0.12624301     0.44170
Cu3101     Cu  0.20611123  0.90313376  0.09240386     0.41990
Cu3102     Cu  0.23154990  0.86704494  0.09597559     0.43880
N3103       N  0.25050934  0.88040316  0.12475355    -0.34960
N3104       N  0.24953861  0.86842299  0.11389189    -0.29210
C3105       C  0.26212087  0.85801995  0.11622440    -0.05310
C3106       C  0.27140833  0.86373610  0.12917294     0.06900
C3107       C  0.26370267  0.87793458  0.13427131     0.00700
H3108       H  0.26435453  0.84715155  0.10897915     0.08350
H3109       H  0.26740847  0.88593537  0.14414898     0.07430
N3110       N  0.21442524  0.87038564  0.07748019    -0.36410
N3111       N  0.20575346  0.88393307  0.07572706    -0.28590
C3112       C  0.19658734  0.88269027  0.06212238    -0.03830
C3113       C  0.19957744  0.86760184  0.05481868     0.04780
C3114       C  0.21077567  0.86005223  0.06519563     0.02880
H3115       H  0.18827168  0.89212064  0.05794765     0.07980
H3116       H  0.21571674  0.84781089  0.06422577     0.06820
N3117       N  0.11097894  0.92082793  0.20673561    -0.27570
N3118       N  0.12114979  0.92177712  0.21924238    -0.35430
C3119       C  0.13130488  0.93452816  0.21691718     0.00770
C3120       C  0.12762275  0.94172436  0.20196698     0.06790
C3121       C  0.11451087  0.93278029  0.19599820    -0.06310
H3122       H  0.14080361  0.93805046  0.22541488     0.07460
H3123       H  0.10829883  0.93450307  0.18443425     0.08660
Cu3124     Cu  0.12172431  0.90450342  0.23783277     0.44170
Cu3125     Cu  0.09303032  0.90312724  0.20481842     0.41990
Cu3126     Cu  0.09199174  0.87107616  0.23544294     0.43880
N3127       N  0.12143952  0.88446308  0.25343776    -0.34960
N3128       N  0.11074238  0.87232016  0.25259544    -0.29210
C3129       C  0.11423801  0.86127851  0.26432577    -0.05310
C3130       C  0.12778595  0.86673142  0.27289372     0.06900
C3131       C  0.13202953  0.88144050  0.26566197     0.00700
H3132       H  0.10744842  0.85008834  0.26639615     0.08350
H3133       H  0.14209838  0.88937424  0.26898508     0.07430
N3134       N  0.07483870  0.87326980  0.21678269    -0.36410
N3135       N  0.07536218  0.88505623  0.20569977    -0.28590
C3136       C  0.06304817  0.88299207  0.19504163    -0.03830
C3137       C  0.05420172  0.86928710  0.19960664     0.04780
C3138       C  0.06212243  0.86333186  0.21339900     0.02880
H3139       H  0.06092999  0.89070896  0.18448214     0.07980
H3140       H  0.05928922  0.85224444  0.22008074     0.06820
N3141       N  0.11440998  0.79173863  0.07870872    -0.27570
N3142       N  0.12347764  0.77865320  0.07584887    -0.35430
C3143       C  0.13208997  0.78102884  0.06199420     0.00770
C3144       C  0.12830253  0.79642234  0.05573206     0.06790
C3145       C  0.11734941  0.80292518  0.06704286    -0.06310
H3146       H  0.14055575  0.77217916  0.05694972     0.07460
H3147       H  0.11200956  0.81501780  0.06716525     0.08660
Cu3148     Cu  0.12438584  0.75883973  0.09170288     0.44170
Cu3149     Cu  0.09709476  0.79350027  0.09730666     0.41990
Cu3150     Cu  0.09457253  0.75978229  0.12505882     0.43880
N3151       N  0.12393101  0.74223553  0.11090545    -0.34960
N3152       N  0.11316226  0.74266615  0.12298862    -0.29210
C3153       C  0.11638272  0.73041025  0.13348710    -0.05310
C3154       C  0.12982490  0.72188947  0.12775936     0.06900
C3155       C  0.13432786  0.72970217  0.11344114     0.00700
H3156       H  0.10944704  0.72794338  0.14449105     0.08350
H3157       H  0.14441380  0.72655860  0.10545667     0.07430
N3158       N  0.07720630  0.77823885  0.12430844    -0.36410
N3159       N  0.07817577  0.79079502  0.11415334    -0.28590
C3160       C  0.06510961  0.80057363  0.11647773    -0.03830
C3161       C  0.05532687  0.79374760  0.12858123     0.04780
C3162       C  0.06354647  0.77968837  0.13339056     0.02880
H3163       H  0.06307319  0.81198246  0.11004791     0.07980
H3164       H  0.05988315  0.77113411  0.14282030     0.06820
C3165       C  0.99040290  0.83541556  0.15938986     0.00280
C3166       C  0.00707289  0.83337159  0.16047058     0.00280
C3167       C  0.16006484  0.83500534  0.98882290     0.00280
C3168       C  0.16137352  0.83432406  0.00560539     0.00280
C3169       C  0.15186810  0.82249349  0.01593713    -0.06400
C3170       C  0.13683382  0.82771181  0.02232507    -0.17530
C3171       C  0.12796815  0.81833757  0.03346699     0.10790
C3172       C  0.13539312  0.80457883  0.04093713    -0.06330
C3173       C  0.15053687  0.79918907  0.03464358    -0.17570
C3174       C  0.15853658  0.80761941  0.02192763     0.10820
S3175       S  0.10688047  0.82415849  0.03635591    -0.32530
S3176       S  0.17749141  0.79897588  0.01462965    -0.32540
H3177       H  0.17778135  0.80717327  0.99957874     0.28830
H3178       H  0.10123700  0.80793243  0.03788132     0.28830
H3179       H  0.13168460  0.83926583  0.01867438     0.19420
H3180       H  0.15642470  0.78848186  0.03979035     0.19430
C3181       C  0.01590016  0.81949173  0.15217507    -0.06400
C3182       C  0.01648021  0.81868856  0.13501563    -0.17530
C3183       C  0.02844573  0.80943309  0.12691965     0.10790
C3184       C  0.04039703  0.80091166  0.13610639    -0.06330
C3185       C  0.03858801  0.80009564  0.15315468    -0.17570
C3186       C  0.02631886  0.80895761  0.16119202     0.10820
S3187       S  0.02777930  0.80911676  0.10488349    -0.32530
S3188       S  0.02470079  0.80640644  0.18302587    -0.32540
H3189       H  0.00782415  0.80975764  0.18366453     0.28830
H3190       H  0.03409323  0.79314304  0.10335850     0.28830
H3191       H  0.00832855  0.82606131  0.12775289     0.19420
H3192       H  0.04717183  0.79301924  0.16038613     0.19430
C3193       C  0.04095703  0.86144716  0.19003780    -0.06400
C3194       C  0.04265766  0.86094942  0.17300286    -0.17530
C3195       C  0.03135192  0.85282540  0.16312267     0.10790
C3196       C  0.01777099  0.84468893  0.17030117    -0.06330
C3197       C  0.01595548  0.84551575  0.18741536    -0.17570
C3198       C  0.02715276  0.85397592  0.19726614     0.10820
S3199       S  0.03559112  0.85307986  0.14149485    -0.32530
S3200       S  0.02297394  0.85486393  0.21889651    -0.32540
H3201       H  0.02939573  0.87070235  0.22109733     0.28830
H3202       H  0.01921298  0.85386201  0.13674607     0.28830
H3203       H  0.05320028  0.86661186  0.16727486     0.19420
H3204       H  0.00623072  0.83889962  0.19338322     0.19430
C3205       C  0.19125892  0.86067248  0.04007989    -0.06400
C3206       C  0.17561227  0.86654938  0.03590524    -0.17530
C3207       C  0.16645875  0.85947499  0.02327116     0.10790
C3208       C  0.17241887  0.84542261  0.01512343    -0.06330
C3209       C  0.18834344  0.84006214  0.01872631    -0.17570
C3210       C  0.19806225  0.84797027  0.03040054     0.10820
S3211       S  0.14724385  0.86895991  0.01826666    -0.32530
S3212       S  0.21916586  0.84165959  0.03154420    -0.32540
H3213       H  0.22515010  0.85750665  0.03474919     0.28830
H3214       H  0.14893205  0.86609153  0.00145720     0.28830
H3215       H  0.17022444  0.87659575  0.04266382     0.19420
H3216       H  0.19333558  0.82949559  0.01254885     0.19430
C3217       C  0.13720831  0.80246740  0.95404073    -0.06400
C3218       C  0.12729524  0.81130253  0.96492324    -0.17530
C3219       C  0.13392717  0.82143715  0.97702399     0.10790
C3220       C  0.15118905  0.82217763  0.97908568    -0.06330
C3221       C  0.16098328  0.81213166  0.96906047    -0.17570
C3222       C  0.15435537  0.80280518  0.95634081     0.10820
S3223       S  0.11919620  0.83366851  0.98795358    -0.32530
S3224       S  0.16872624  0.79338029  0.94251875    -0.32540
H3225       H  0.16066640  0.79887492  0.92832563     0.28830
H3226       H  0.12998343  0.84591950  0.99289861     0.28830
H3227       H  0.11411498  0.81096772  0.96346967     0.19420
H3228       H  0.17417909  0.81257763  0.97025966     0.19430
C3229       C  0.04084242  0.80383311  0.85957454    -0.06400
C3230       C  0.02870672  0.79431010  0.85194916    -0.17530
C3231       C  0.01646292  0.80142570  0.84219641     0.10790
C3232       C  0.01603492  0.81870908  0.84028381    -0.06330
C3233       C  0.02752936  0.82818678  0.84892563    -0.17570
C3234       C  0.04004622  0.82105985  0.85809484     0.10820
S3235       S  0.00282684  0.78739499  0.83195756    -0.32530
S3236       S  0.05553206  0.83471272  0.86587523    -0.32540
H3237       H  0.06871736  0.82495585  0.86058937     0.28830
H3238       H  0.99856012  0.79761840  0.81890750     0.28830
H3239       H  0.02914284  0.78108162  0.85308692     0.19420
H3240       H  0.02744386  0.84140486  0.84760143     0.19430
C3241       C  0.03909782  0.85655781  0.79802433    -0.06400
C3242       C  0.03876225  0.83946279  0.79636111    -0.17530
C3243       C  0.02760848  0.82985895  0.80514546     0.10790
C3244       C  0.01627916  0.83749151  0.81581285    -0.06330
C3245       C  0.01635815  0.85465872  0.81709814    -0.17570
C3246       C  0.02728251  0.86424819  0.80805802     0.10820
S3247       S  0.02861096  0.80783641  0.80309370    -0.32530
S3248       S  0.02532745  0.88618529  0.80980469    -0.32540
H3249       H  0.03035237  0.88951077  0.79367841     0.28830
H3250       H  0.04059683  0.80726302  0.79075492     0.28830
H3251       H  0.04785849  0.83351869  0.78878355     0.19420
H3252       H  0.00830768  0.86067159  0.82569840     0.19430
C3253       C  0.14579335  0.97642394  0.82695550    -0.06400
C3254       C  0.14286998  0.96148251  0.83531226    -0.17530
C3255       C  0.13877063  0.94700142  0.82715812     0.10790
C3256       C  0.13615330  0.94728472  0.81017561    -0.06330
C3257       C  0.13735060  0.96215617  0.80189031    -0.17570
C3258       C  0.14122123  0.97674097  0.81004284     0.10820
S3259       S  0.13862205  0.92828765  0.83891852    -0.32530
S3260       S  0.13418912  0.99434827  0.79909631    -0.32540
H3261       H  0.12195717  0.99758612  0.81078968     0.28830
H3262       H  0.14435340  0.91820605  0.82617867     0.28830
H3263       H  0.14526324  0.96060986  0.84829115     0.19420
H3264       H  0.13382478  0.96262337  0.78909906     0.19430
C3265       C  0.01535008  0.15461954  0.82102507    -0.06400
C3266       C  0.02589300  0.14403693  0.82971136    -0.17530
C3267       C  0.03889290  0.13593706  0.82219649     0.10790
C3268       C  0.04148549  0.13789335  0.80524787    -0.06330
C3269       C  0.03111880  0.14842220  0.79643808    -0.17570
C3270       C  0.01817513  0.15676315  0.80405211     0.10820
S3271       S  0.05237133  0.12443562  0.83537201    -0.32530
S3272       S  0.00622793  0.17015072  0.79135772    -0.32540
H3273       H  0.99122506  0.16350389  0.79626591     0.28830
H3274       H  0.06680733  0.12968861  0.82759043     0.28830
H3275       H  0.02408609  0.14198835  0.84262588     0.19420
H3276       H  0.03305642  0.15010978  0.78342870     0.19430
C3277       C  0.14866579  0.01564889  0.82483286    -0.06400
C3278       C  0.13383645  0.02219563  0.83047250    -0.17530
C3279       C  0.12693089  0.03619419  0.82342232     0.10790
C3280       C  0.13363518  0.04273909  0.80881613    -0.06330
C3281       C  0.14799004  0.03556591  0.80257445    -0.17570
C3282       C  0.15576973  0.02253808  0.81055295     0.10820
S3283       S  0.11113095  0.04609567  0.83519428    -0.32530
S3284       S  0.17368603  0.01417096  0.80067732    -0.32540
H3285       H  0.17189237  0.99815568  0.80666738     0.28830
H3286       H  0.11731654  0.06198088  0.83256304     0.28830
H3287       H  0.12780512  0.01692149  0.84091901     0.19420
H3288       H  0.15325261  0.03999783  0.79125814     0.19430
C3289       C  0.01353960  0.17639113  0.84224532    -0.06400
C3290       C  0.01866662  0.17006093  0.85738497    -0.17530
C3291       C  0.03160712  0.17711075  0.86612571     0.10790
C3292       C  0.03862587  0.19203527  0.86063772    -0.06330
C3293       C  0.03213847  0.19928539  0.84640394    -0.17570
C3294       C  0.02006302  0.19150546  0.83707934     0.10820
S3295       S  0.03977368  0.16500477  0.88262851    -0.32530
S3296       S  0.01358559  0.20137310  0.81861786    -0.32540
H3297       H  0.99969207  0.20800224  0.82634542     0.28830
H3298       H  0.05608917  0.16661601  0.87733843     0.28830
H3299       H  0.01363518  0.15856036  0.86167313     0.19420
H3300       H  0.03681253  0.21093860  0.84213355     0.19430
C3301       C  0.19081583  0.03889500  0.85978460    -0.06400
C3302       C  0.17560447  0.03482618  0.86682149    -0.17530
C3303       C  0.16507753  0.02326971  0.85996729     0.10790
C3304       C  0.17017467  0.01406556  0.84618904    -0.06330
C3305       C  0.18599126  0.01675992  0.84009168    -0.17570
C3306       C  0.19587087  0.02956490  0.84593964     0.10820
S3307       S  0.14511914  0.02200938  0.86942125    -0.32530
S3308       S  0.21354600  0.03407681  0.83369114    -0.32540
H3309       H  0.20824605  0.05019453  0.83048814     0.28830
H3310       H  0.13996484  0.00743123  0.86211347     0.28830
H3311       H  0.17116826  0.04115729  0.87750277     0.19420
H3312       H  0.19018517  0.00972293  0.82969799     0.19430
C3313       C  0.95168721  0.13606430  0.80381897    -0.06400
C3314       C  0.96819135  0.13168228  0.80264434    -0.17530
C3315       C  0.97987736  0.13798708  0.81358037     0.10790
C3316       C  0.97566140  0.15134779  0.82405901    -0.06330
C3317       C  0.95857297  0.15354760  0.82658092    -0.17570
C3318       C  0.94676473  0.14634110  0.81664479     0.10820
S3319       S  0.99610285  0.12379169  0.81778073    -0.32530
S3320       S  0.92557330  0.15002686  0.82171163    -0.32540
H3321       H  0.92013087  0.15175744  0.80553150     0.28830
H3322       H  0.99643310  0.12746503  0.83460417     0.28830
H3323       H  0.97163466  0.12189746  0.79435014     0.19420
H3324       H  0.95391232  0.16111071  0.83635036     0.19430
C3325       C  0.86263586  0.03753394  0.79891661    -0.06400
C3326       C  0.86563679  0.03606369  0.81579550    -0.17530
C3327       C  0.85578127  0.02614780  0.82578209     0.10790
C3328       C  0.84252727  0.01751025  0.81877061    -0.06330
C3329       C  0.84028284  0.01810854  0.80174185    -0.17570
C3330       C  0.85054921  0.02744155  0.79172962     0.10820
S3331       S  0.85870016  0.02672914  0.84765252    -0.32530
S3332       S  0.84744490  0.02592662  0.76995153    -0.32540
H3333       H  0.86386347  0.02911327  0.76584486     0.28830
H3334       H  0.87371829  0.03514720  0.84754332     0.28830
H3335       H  0.87483734  0.04371924  0.82144452     0.19420
H3336       H  0.82984006  0.01212996  0.79625633     0.19430
C3337       C  0.79889988  0.04159608  0.85902024    -0.06400
C3338       C  0.80944752  0.04834513  0.84749334    -0.17530
C3339       C  0.81763008  0.03856426  0.83601848     0.10790
C3340       C  0.81683580  0.02098103  0.83715972    -0.06330
C3341       C  0.80403578  0.01484608  0.84715044    -0.17570
C3342       C  0.79559345  0.02473517  0.85837293     0.10820
S3343       S  0.82533359  0.04959751  0.81842927    -0.32530
S3344       S  0.78052271  0.01510134  0.87132507    -0.32540
H3345       H  0.78196792  0.02608407  0.88448909     0.28830
H3346       H  0.82842004  0.06454864  0.82642825     0.28830
H3347       H  0.81040108  0.06157690  0.84682172     0.21980
H3348       H  0.79991715  0.00244107  0.84631254     0.19430
C3349       C  0.81764917  0.15575890  0.97953278    -0.06400
C3350       C  0.82684994  0.14582328  0.96889822    -0.17530
C3351       C  0.81952470  0.13667904  0.95648556     0.10790
C3352       C  0.80230126  0.13647651  0.95505840    -0.06330
C3353       C  0.79295787  0.14548354  0.96637144    -0.17570
C3354       C  0.80031999  0.15521659  0.97846718     0.10820
S3355       S  0.83308565  0.12716341  0.94191592    -0.32530
S3356       S  0.78657211  0.16672616  0.99139291    -0.32540
H3357       H  0.79796603  0.17766618  0.99784977     0.28830
H3358       H  0.82412361  0.13232508  0.92814461     0.28830
H3359       H  0.84009544  0.14602121  0.96957567     0.19420
H3360       H  0.77972269  0.14528488  0.96550200     0.19430
C3361       C  0.80143404  0.03957478  0.13376102    -0.06400
C3362       C  0.81675965  0.03474383  0.12767769    -0.17530
C3363       C  0.82620289  0.02273434  0.13541097     0.10790
C3364       C  0.82072661  0.01572392  0.15033552    -0.06330
C3365       C  0.80482760  0.01953119  0.15565475    -0.17570
C3366       C  0.79498830  0.03088750  0.14733596     0.10820
S3367       S  0.84485732  0.01720638  0.12501681    -0.32530
S3368       S  0.77420470  0.03298817  0.15439557    -0.32540
H3369       H  0.76762313  0.03537699  0.13866564     0.28830
H3370       H  0.84864884  0.00382422  0.13479045     0.28830
H3371       H  0.82179483  0.04064106  0.11694490     0.19420
H3372       H  0.79991866  0.01374962  0.16645384     0.19430
C3373       C  0.79956588  0.13635876  0.03833779    -0.06400
C3374       C  0.79940550  0.15347666  0.03996270    -0.17530
C3375       C  0.80800678  0.16361727  0.02917747     0.10790
C3376       C  0.81740903  0.15656840  0.01644059    -0.06330
C3377       C  0.81710514  0.13946127  0.01439530    -0.17570
C3378       C  0.80812620  0.12935022  0.02500266     0.10820
S3379       S  0.80638445  0.18559436  0.03166072    -0.32530
S3380       S  0.80775743  0.10774595  0.02051368    -0.32540
H3381       H  0.79154260  0.10535163  0.02578383     0.28830
H3382       H  0.79543003  0.18560547  0.04493378     0.28830
H3383       H  0.79280829  0.15898336  0.05003107     0.19420
H3384       H  0.82418418  0.13388924  0.00466947     0.19430
C3385       C  0.85886117  0.04408482  0.18827900    -0.06400
C3386       C  0.84588221  0.03588753  0.19600786    -0.17530
C3387       C  0.83714387  0.02334363  0.18825049     0.10790
C3388       C  0.84223686  0.01761165  0.17262457    -0.06330
C3389       C  0.85599758  0.02503297  0.16552035    -0.17570
C3390       C  0.86369996  0.03860006  0.17255972     0.10820
S3391       S  0.81925812  0.01642569  0.19911094    -0.32530
S3392       S  0.87789381  0.04936135  0.15956759    -0.32540
H3393       H  0.87129670  0.06489877  0.16311927     0.28830
H3394       H  0.81418609  0.00522383  0.18757617     0.28830
H3395       H  0.84197381  0.03968063  0.20808186     0.19420
H3396       H  0.86014658  0.02118218  0.15366236     0.19430
C3397       C  0.86148438  0.19508758  0.03628518    -0.06400
C3398       C  0.86276182  0.17794726  0.03570849    -0.17530
C3399       C  0.85289494  0.16864955  0.02520587     0.10790
C3400       C  0.84120507  0.17658606  0.01522937    -0.06330
C3401       C  0.84091536  0.19379002  0.01478334    -0.17570
C3402       C  0.85100747  0.20309243  0.02503840     0.10820
S3403       S  0.85550567  0.14667010  0.02448735    -0.32530
S3404       S  0.85002489  0.22506692  0.02298761    -0.32540
H3405       H  0.86650302  0.22778502  0.02717051     0.28830
H3406       H  0.86849912  0.14566255  0.03572896     0.28830
H3407       H  0.87103384  0.17175430  0.04399878     0.19420
H3408       H  0.83233814  0.20002146  0.00682622     0.19430
C3409       C  0.80522078  0.95501841  0.13342536    -0.06400
C3410       C  0.79869361  0.96140340  0.14800352    -0.17530
C3411       C  0.80712028  0.97308319  0.15735038     0.10790
C3412       C  0.82212988  0.97951181  0.15159518    -0.06330
C3413       C  0.82802513  0.97401028  0.13643180    -0.17570
C3414       C  0.82025278  0.96148982  0.12769484     0.10820
S3415       S  0.79870345  0.97892752  0.17687218    -0.32530
S3416       S  0.83139498  0.95330565  0.11053641    -0.32540
H3417       H  0.82914051  0.93688785  0.11531446     0.28830
H3418       H  0.78436136  0.96943022  0.17622598     0.28830
H3419       H  0.78707799  0.95685595  0.15240863     0.19420
H3420       H  0.83938502  0.97863536  0.13168153     0.19430
C3421       C  0.80238837  0.86292663  0.03792517    -0.06400
C3422       C  0.81642676  0.87094109  0.03194618    -0.17530
C3423       C  0.82640582  0.86385144  0.01993170     0.10790
C3424       C  0.82314966  0.84775214  0.01448265    -0.06330
C3425       C  0.80867528  0.84013928  0.01979748    -0.17570
C3426       C  0.79791650  0.84782200  0.03065068     0.10820
S3427       S  0.84271302  0.87628557  0.01200857    -0.32530
S3428       S  0.77837486  0.83804355  0.03363901    -0.32540
H3429       H  0.76961110  0.85284883  0.03484380     0.28830
H3430       H  0.84160703  0.87003425  0.99609498     0.28830
H3431       H  0.81987282  0.88281306  0.03670876     0.19420
H3432       H  0.80547438  0.82815475  0.01511889     0.19430
C3433       C  0.95371720  0.80508962  0.13653783    -0.06400
C3434       C  0.96064983  0.81818952  0.12782798    -0.17530
C3435       C  0.97322198  0.82776815  0.13433309     0.10790
C3436       C  0.97988869  0.82381634  0.14984292    -0.06330
C3437       C  0.97395790  0.80985956  0.15797154    -0.17570
C3438       C  0.96061792  0.80083065  0.15189448     0.10820
S3439       S  0.97934039  0.84503606  0.12203162    -0.32530
S3440       S  0.95161845  0.78537926  0.16493790    -0.32540
H3441       H  0.96288270  0.78646012  0.17790504     0.28830
H3442       H  0.99345526  0.84885308  0.13069223     0.28830
H3443       H  0.95589574  0.82142056  0.11588923     0.19420
H3444       H  0.97910446  0.80670251  0.16973681     0.19430
C3445       C  0.85790186  0.80703867  0.04229290    -0.06400
C3446       C  0.86650821  0.82038072  0.03568593    -0.17530
C3447       C  0.86005682  0.83002569  0.02311055     0.10790
C3448       C  0.84477526  0.82586274  0.01603613    -0.06330
C3449       C  0.83678910  0.81169925  0.02166619    -0.17570
C3450       C  0.84268864  0.80276255  0.03508960     0.10820
S3451       S  0.87215094  0.84758865  0.01743885    -0.32530
S3452       S  0.82905965  0.78756711  0.04341562    -0.32540
H3453       H  0.83136847  0.79260662  0.05971810     0.28830
H3454       H  0.86390845  0.85122454  0.00301958     0.28830
H3455       H  0.87833694  0.82370846  0.04063349     0.19420
H3456       H  0.82512630  0.80828259  0.01640619     0.19430
C3457       C  0.15009422  0.17438478  0.97916532    -0.06400
C3458       C  0.15716766  0.18889198  0.97338334    -0.17530
C3459       C  0.14865781  0.19939620  0.96289539     0.10790
C3460       C  0.13330566  0.19448895  0.95642666    -0.06330
C3461       C  0.12577772  0.18048504  0.96316362    -0.17570
C3462       C  0.13380242  0.17070791  0.97483642     0.10820
S3463       S  0.15777607  0.21917749  0.95931001    -0.32530
S3464       S  0.12343498  0.15321259  0.98352160    -0.32540
H3465       H  0.10807693  0.15614256  0.97631651     0.28830
H3466       H  0.14271875  0.22749750  0.95825197     0.28830
H3467       H  0.16942227  0.19217223  0.97720162     0.19420
H3468       H  0.11383365  0.17676390  0.95889586     0.19430
C3469       C  0.17141578  0.15235672  0.97700456    -0.06400
C3470       C  0.16323784  0.14263636  0.96543850    -0.17530
C3471       C  0.17144365  0.13494142  0.95265656     0.10790
C3472       C  0.18868425  0.13591858  0.95171758    -0.06330
C3473       C  0.19705957  0.14533659  0.96346163    -0.17570
C3474       C  0.18864917  0.15389591  0.97580955     0.10820
S3475       S  0.15876431  0.12576209  0.93710138    -0.32530
S3476       S  0.20073998  0.16706093  0.98878454    -0.32540
H3477       H  0.18817610  0.17763485  0.99376544     0.28830
H3478       H  0.16799509  0.13200277  0.92396707     0.28830
H3479       H  0.15006439  0.14166915  0.96578522     0.19420
H3480       H  0.21025997  0.14639801  0.96276161     0.19430
C3481       C  0.15152168  0.97955061  0.17390406    -0.06400
C3482       C  0.16060436  0.96983947  0.18480204    -0.17530
C3483       C  0.15331838  0.95747482  0.19403655     0.10790
C3484       C  0.13616173  0.95529233  0.19335900    -0.06330
C3485       C  0.12685867  0.96591478  0.18345892    -0.17570
C3486       C  0.13431398  0.97792932  0.17363179     0.10820
S3487       S  0.16704516  0.94386468  0.20468667    -0.32530
S3488       S  0.12173970  0.99050577  0.16050392    -0.32540
H3489       H  0.10652472  0.98390184  0.16510477     0.28830
H3490       H  0.15928584  0.92952370  0.19911029     0.28830
H3491       H  0.17378395  0.97112350  0.18530330     0.19420
H3492       H  0.11369581  0.96449121  0.18311722     0.19430
C3493       C  0.19155674  0.95371824  0.13682392    -0.06400
C3494       C  0.17533079  0.95645946  0.13178948    -0.17530
C3495       C  0.16569957  0.96880470  0.13863810     0.10790
C3496       C  0.17210654  0.97885347  0.15113381    -0.06330
C3497       C  0.18848223  0.97666130  0.15585215    -0.17570
C3498       C  0.19819341  0.96422654  0.14896822     0.10820
S3499       S  0.14512905  0.97072688  0.13103198    -0.32530
S3500       S  0.21885604  0.96253836  0.15624532    -0.32540
H3501       H  0.21381703  0.95440655  0.17059077     0.28830
H3502       H  0.14438018  0.98773101  0.13308922     0.28830
H3503       H  0.16977071  0.94865702  0.12265330     0.19420
H3504       H  0.19350961  0.98420705  0.16552982     0.19430
C3505       C  0.97874824  0.15136005  0.17099676    -0.06400
C3506       C  0.97367574  0.15958974  0.18517887    -0.17530
C3507       C  0.96152868  0.15319442  0.19548664     0.10790
C3508       C  0.95453912  0.13757770  0.19209442    -0.06330
C3509       C  0.96078477  0.12890925  0.17854980    -0.17570
C3510       C  0.97220013  0.13565770  0.16780956     0.10820
S3511       S  0.95534095  0.16630539  0.21198942    -0.32530
S3512       S  0.97698978  0.12335176  0.15012891    -0.32540
H3513       H  0.99118382  0.13158163  0.14564229     0.28830
H3514       H  0.96161132  0.15547263  0.22384524     0.28830
H3515       H  0.97877849  0.17151061  0.18795062     0.19420
H3516       H  0.95651388  0.11672548  0.17575088     0.19430
C3517       C  0.97951055  0.17217313  0.14828472    -0.06400
C3518       C  0.97398438  0.18683734  0.15540104    -0.17530
C3519       C  0.96292203  0.19718753  0.14740343     0.10790
C3520       C  0.95548251  0.19201247  0.13260716    -0.06330
C3521       C  0.96158660  0.17771320  0.12513262    -0.17570
C3522       C  0.97390680  0.16823464  0.13240723     0.10820
S3523       S  0.96005429  0.21717895  0.15629751    -0.32530
S3524       S  0.98206595  0.15172677  0.12038997    -0.32540
H3525       H  0.99806984  0.15364181  0.12619389     0.28830
H3526       H  0.95899383  0.22527358  0.14112504     0.28830
H3527       H  0.97868868  0.19053739  0.16721375     0.19420
H3528       H  0.95677021  0.17370892  0.11348156     0.19430
C3529       C  0.13254716  0.03941483  0.19031595    -0.06400
C3530       C  0.13255743  0.04035869  0.17321483    -0.17530
C3531       C  0.14105818  0.02903728  0.16366889     0.10790
C3532       C  0.15022881  0.01636904  0.17124496    -0.06330
C3533       C  0.14969133  0.01502227  0.18839994    -0.17570
C3534       C  0.14082194  0.02622681  0.19795375     0.10820
S3535       S  0.13948868  0.03162452  0.14183737    -0.32530
S3536       S  0.14037675  0.02281097  0.21972736    -0.32540
H3537       H  0.12439583  0.02883547  0.22195166     0.28830
H3538       H  0.13941516  0.01480788  0.13843666     0.28830
H3539       H  0.12615956  0.05028161  0.16714197     0.19420
H3540       H  0.15661717  0.00548433  0.19447895     0.19430
C3541       C  0.03812613  0.13592149  0.19341041    -0.06400
C3542       C  0.03744455  0.15311604  0.19351821    -0.17530
C3543       C  0.02566917  0.16162095  0.18441834     0.10790
C3544       C  0.01473153  0.15291793  0.17418009    -0.06330
C3545       C  0.01441338  0.13574870  0.17541900    -0.17570
C3546       C  0.02565592  0.12722760  0.18513986     0.10820
S3547       S  0.02516214  0.18358630  0.18653656    -0.32530
S3548       S  0.02315817  0.10532733  0.18658358    -0.32540
H3549       H  0.02879773  0.10422124  0.20281188     0.28830
H3550       H  0.00819201  0.18488606  0.18391790     0.28830
H3551       H  0.04641646  0.16006882  0.20036475     0.19420
H3552       H  0.00592310  0.12871812  0.16825840     0.19430
C3553       C  0.19106634  0.13550932  0.03922412    -0.06400
C3554       C  0.18289123  0.12637289  0.02714060    -0.17530
C3555       C  0.17355448  0.13399753  0.01485776     0.10790
C3556       C  0.17265446  0.15135367  0.01435803    -0.06330
C3557       C  0.18181136  0.16036664  0.02581046    -0.17570
C3558       C  0.19048787  0.15279532  0.03839105     0.10820
S3559       S  0.16266550  0.12059484  0.00108961    -0.32530
S3560       S  0.19877876  0.16610532  0.05391657    -0.32540
H3561       H  0.19312450  0.15652247  0.06706926     0.28830
H3562       H  0.15031558  0.13158229  0.99656250     0.28830
H3563       H  0.18334550  0.11310507  0.02758590     0.19420
H3564       H  0.18127482  0.17363748  0.02565297     0.19430
C3565       C  0.19293941  0.03779923  0.13373101    -0.06400
C3566       C  0.19405367  0.03733073  0.15086215    -0.17530
C3567       C  0.18531622  0.02584436  0.16001273     0.10790
C3568       C  0.17458302  0.01486641  0.15205217    -0.06330
C3569       C  0.17466965  0.01424775  0.13488058    -0.17570
C3570       C  0.18385328  0.02543750  0.12566236     0.10820
S3571       S  0.18837926  0.02587846  0.18185360    -0.32530
S3572       S  0.18353478  0.02310525  0.10374953    -0.32540
H3573       H  0.19970924  0.02852173  0.10139284     0.28830
H3574       H  0.18552556  0.00899581  0.18385423     0.28830
H3575       H  0.20139039  0.04630107  0.15730263     0.19420
H3576       H  0.16697398  0.00552228  0.12856551     0.19430
C3577       C  0.03873700  0.19081123  0.13138163    -0.06400
C3578       C  0.04038733  0.17373594  0.13174363    -0.17530
C3579       C  0.02939181  0.16388479  0.14036356     0.10790
C3580       C  0.01615568  0.17116372  0.14896477    -0.06330
C3581       C  0.01436956  0.18830833  0.14820729    -0.17570
C3582       C  0.02530713  0.19812373  0.13940423     0.10820
S3583       S  0.03358699  0.14219550  0.14020285    -0.32530
S3584       S  0.02139520  0.21986321  0.13891742    -0.32540
H3585       H  0.02757604  0.22229917  0.12304001     0.28830
H3586       H  0.01721478  0.13735604  0.14063845     0.28830
H3587       H  0.05069066  0.16799599  0.12565549     0.19420
H3588       H  0.00492669  0.19432440  0.15518705     0.19430
C3589       C  0.14932530  0.17147242  0.01473161    -0.06400
C3590       C  0.15200054  0.18847271  0.01520734    -0.17530
C3591       C  0.14387749  0.19848644  0.02656489     0.10790
C3592       C  0.13311981  0.19127680  0.03803965    -0.06330
C3593       C  0.13004480  0.17438104  0.03715532    -0.17570
C3594       C  0.13799279  0.16443603  0.02570762     0.10820
S3595       S  0.14711723  0.22038008  0.02593804    -0.32530
S3596       S  0.13385187  0.14270246  0.02563155    -0.32540
H3597       H  0.12146029  0.14276204  0.03757643     0.28830
H3598       H  0.15747047  0.22060648  0.01218282     0.28830
H3599       H  0.16103056  0.19378521  0.00712295     0.19420
H3600       H  0.12183317  0.16880433  0.04591902     0.19430
C3601       C  0.95685261  0.86135047  0.80181636    -0.06400
C3602       C  0.96202962  0.84650643  0.79464387    -0.17530
C3603       C  0.97400358  0.83657969  0.80188460     0.10790
C3604       C  0.98032637  0.84082847  0.81742153    -0.06330
C3605       C  0.97573553  0.85590904  0.82425301    -0.17570
C3606       C  0.96502758  0.86659046  0.81621231     0.10820
S3607       S  0.98001179  0.81851048  0.79069841    -0.32530
S3608       S  0.96358178  0.88695749  0.82455081    -0.32540
H3609       H  0.96277911  0.89461048  0.80913455     0.28830
H3610       H  0.99547393  0.81714092  0.79774215     0.28830
H3611       H  0.95662669  0.84227615  0.78335006     0.19420
H3612       H  0.98073137  0.85958647  0.83594133     0.19430
C3613       C  0.86003988  0.95719727  0.80470649    -0.06400
C3614       C  0.86365200  0.96048785  0.82118776    -0.17530
C3615       C  0.85585951  0.97312827  0.82976987     0.10790
C3616       C  0.84349946  0.98257240  0.82210098    -0.06330
C3617       C  0.84011388  0.97940889  0.80554093    -0.17570
C3618       C  0.84878363  0.96762695  0.79660095     0.10820
S3619       S  0.86188720  0.97594879  0.85069921    -0.32530
S3620       S  0.84516929  0.96717166  0.77486623    -0.32540
H3621       H  0.86148803  0.96339377  0.77083897     0.28830
H3622       H  0.85936586  0.99288497  0.85037065     0.28830
H3623       H  0.87233340  0.95288485  0.82771109     0.19420
H3624       H  0.83008279  0.98563089  0.79959715     0.19430
C3625       C  0.86009259  0.80292907  0.95644553    -0.06400
C3626       C  0.84295348  0.80240634  0.95737739    -0.17530
C3627       C  0.83445778  0.81134922  0.96923777     0.10790
C3628       C  0.84311939  0.82175269  0.98004222    -0.06330
C3629       C  0.86028044  0.82076819  0.98026485    -0.17570
C3630       C  0.86881567  0.81131489  0.96880679     0.10820
S3631       S  0.81254287  0.80899978  0.96989580    -0.32530
S3632       S  0.89077236  0.81047988  0.97073718    -0.32540
H3633       H  0.89224393  0.79436967  0.96477743     0.28830
H3634       H  0.81125360  0.81205789  0.98678425     0.28830
H3635       H  0.83603099  0.79544181  0.94847046     0.19420
H3636       H  0.86724365  0.82805842  0.98872954     0.19430
C3637       C  0.95430776  0.80349957  0.85815562    -0.06400
C3638       C  0.96552553  0.81418406  0.86567315    -0.17530
C3639       C  0.97757844  0.82246466  0.85657617     0.10790
C3640       C  0.97889033  0.81950464  0.83952745    -0.06330
C3641       C  0.96778382  0.80863334  0.83223511    -0.17570
C3642       C  0.95537714  0.80104727  0.84107892     0.10820
S3643       S  0.99010966  0.83692912  0.86764057    -0.32530
S3644       S  0.94044438  0.78987232  0.82927182    -0.32540
H3645       H  0.92691198  0.79609033  0.83793192     0.28830
H3646       H  0.99664420  0.84545715  0.85431523     0.28830
H3647       H  0.96470632  0.81634035  0.87872884     0.19420
H3648       H  0.96827707  0.80645580  0.81924167     0.19430
C3649       C  0.80278957  0.95615601  0.85667949    -0.06400
C3650       C  0.81159593  0.96763034  0.86597149    -0.17530
C3651       C  0.82028443  0.98046857  0.85861825     0.10790
C3652       C  0.82005841  0.98210265  0.84130893    -0.06330
C3653       C  0.81037222  0.97118700  0.83218481    -0.17570
C3654       C  0.80227444  0.95803474  0.83949326     0.10820
S3655       S  0.83094502  0.99405170  0.87240249    -0.32530
S3656       S  0.79323414  0.94323747  0.82585187    -0.32540
H3657       H  0.79921397  0.92955398  0.83446981     0.28830
H3658       H  0.83460313  0.00634110  0.86119085     0.28830
H3659       H  0.81183072  0.96652296  0.87918170     0.19420
H3660       H  0.80998995  0.97225621  0.81898253     0.19430
C3661       C  0.80562943  0.86400626  0.95448490    -0.06400
C3662       C  0.82269369  0.86340669  0.95304646    -0.17530
C3663       C  0.83235400  0.85510933  0.96444465     0.10790
C3664       C  0.82491684  0.84691670  0.97785485    -0.06330
C3665       C  0.80777424  0.84786100  0.97940759    -0.17570
C3666       C  0.79814936  0.85649380  0.96813424     0.10820
S3667       S  0.85405541  0.85518586  0.96053894    -0.32530
S3668       S  0.77645805  0.85752936  0.97201512    -0.32540
H3669       H  0.77443175  0.87338117  0.96554950     0.28830
H3670       H  0.85856367  0.85583657  0.97698876     0.28830
H3671       H  0.82861305  0.86909036  0.94262266     0.19420
H3672       H  0.80160089  0.84119973  0.98896958     0.19430
C3673       C  0.86186540  0.95752676  0.19237567    -0.06400
C3674       C  0.86711568  0.96152858  0.17652123    -0.17530
C3675       C  0.85901356  0.97333749  0.16710390     0.10790
C3676       C  0.84461404  0.98092624  0.17308614    -0.06330
C3677       C  0.83990033  0.97754815  0.18925271    -0.17570
C3678       C  0.84866976  0.96656613  0.19911506     0.10820
S3679       S  0.86806057  0.97832005  0.14775192    -0.32530
S3680       S  0.84269401  0.96535065  0.22030143    -0.32540
H3681       H  0.85870323  0.96289459  0.22616183     0.28830
H3682       H  0.87019957  0.99477976  0.15217331     0.28830
H3683       H  0.87749542  0.95524184  0.17118870     0.19420
H3684       H  0.82914892  0.98323952  0.19431801     0.19430
C3685       C  0.95683852  0.86159291  0.19091775    -0.06400
C3686       C  0.96314896  0.86925695  0.17681395    -0.17530
C3687       C  0.97553648  0.86202406  0.16737017     0.10790
C3688       C  0.98104373  0.84604438  0.17114153    -0.06330
C3689       C  0.97537579  0.83876963  0.18565529    -0.17570
C3690       C  0.96420792  0.84667155  0.19596463     0.10820
S3691       S  0.98395572  0.87419005  0.15111735    -0.32530
S3692       S  0.96109672  0.83744499  0.21574255    -0.32540
H3693       H  0.96003681  0.85251801  0.22404459     0.28830
H3694       H  0.99987644  0.86811249  0.15304955     0.28830
H3695       H  0.95843511  0.88101488  0.17292883     0.19420
H3696       H  0.98000650  0.82686810  0.18924718     0.19430
C3697       C  0.17058927  0.84620423  0.97859716    -0.06400
C3698       C  0.18754266  0.84327493  0.97778922    -0.17530
C3699       C  0.19755111  0.85112744  0.96624536     0.10790
C3700       C  0.19044599  0.86157977  0.95437436    -0.06330
C3701       C  0.17362529  0.86484785  0.95544021    -0.17570
C3702       C  0.16369863  0.85741689  0.96728630     0.10820
S3703       S  0.21923787  0.84739300  0.96763995    -0.32530
S3704       S  0.14211568  0.86193146  0.96693859    -0.32540
H3705       H  0.14268481  0.87521036  0.95597486     0.28830
H3706       H  0.22375576  0.86331851  0.96282902     0.28830
H3707       H  0.19300370  0.83417544  0.98566380     0.19420
H3708       H  0.16797633  0.87268090  0.94638431     0.19430
C3709       C  0.19240764  0.95329402  0.85630705    -0.06400
C3710       C  0.18287069  0.96309056  0.86669868    -0.17530
C3711       C  0.17217886  0.97501893  0.86060675     0.10790
C3712       C  0.17191256  0.97851931  0.84364078    -0.06330
C3713       C  0.18272569  0.96988348  0.83339847    -0.17570
C3714       C  0.19246480  0.95700739  0.83935646     0.10820
S3715       S  0.15712381  0.98309501  0.87444356    -0.32530
S3716       S  0.20283647  0.94471427  0.82430517    -0.32540
H3717       H  0.19715121  0.92977018  0.83075078     0.28830
H3718       H  0.16495152  0.97869792  0.88913305     0.28830
H3719       H  0.18284535  0.96055328  0.87968371     0.19420
H3720       H  0.18231258  0.97206621  0.82032411     0.19430
C3721       C  0.95645341  0.19490372  0.86159240    -0.06400
C3722       C  0.95791128  0.19771700  0.84471544    -0.17530
C3723       C  0.96901257  0.18894995  0.83513378     0.10790
C3724       C  0.97888084  0.17664500  0.84245212    -0.06330
C3725       C  0.97812238  0.17452244  0.85947661    -0.17570
C3726       C  0.96747731  0.18386171  0.86914721     0.10820
S3727       S  0.96781495  0.19224753  0.81336156    -0.32530
S3728       S  0.96881856  0.18120477  0.89098318    -0.32540
H3729       H  0.96463241  0.19750961  0.89472435     0.28830
H3730       H  0.98364779  0.18689990  0.81018967     0.28830
H3731       H  0.94962466  0.20610085  0.83863607     0.19420
H3732       H  0.98539525  0.16505695  0.86523706     0.19430
C3733       C  0.85801422  0.19448151  0.95587593    -0.06400
C3734       C  0.84118073  0.19781518  0.95687149    -0.17530
C3735       C  0.83131062  0.19039852  0.96864704     0.10790
C3736       C  0.83804818  0.17879915  0.97953257    -0.06330
C3737       C  0.85498703  0.17584777  0.97902534    -0.17570
C3738       C  0.86507157  0.18385332  0.96765385     0.10820
S3739       S  0.81011824  0.19623071  0.96913373    -0.32530
S3740       S  0.88676345  0.18027637  0.96924530    -0.32540
H3741       H  0.89120544  0.19635169  0.96488164     0.28830
H3742       H  0.81052248  0.19956465  0.98599652     0.28830
H3743       H  0.83546290  0.20604516  0.94818821     0.19420
H3744       H  0.86033829  0.16697667  0.98731964     0.19430
C3745       C  0.13673102  0.54209230  0.68858610    -0.06400
C3746       C  0.14533088  0.52981453  0.69705834    -0.17530
C3747       C  0.15424293  0.51773841  0.68869663     0.10790
C3748       C  0.15367912  0.51729710  0.67138088    -0.06330
C3749       C  0.14514113  0.52970244  0.66305436    -0.17570
C3750       C  0.13716830  0.54225266  0.67133664     0.10820
S3751       S  0.16689132  0.50439429  0.70096132    -0.32530
S3752       S  0.12942069  0.55890785  0.65905140    -0.32540
H3753       H  0.13471066  0.57127110  0.66982201     0.28830
H3754       H  0.17828841  0.50031467  0.68877829     0.28830
H3755       H  0.14550526  0.52992035  0.71031585     0.19420
H3756       H  0.14540255  0.53014773  0.64982488     0.19430
C3757       C  0.01800458  0.65636988  0.67608015    -0.06400
C3758       C  0.01632353  0.63922609  0.67588842    -0.17530
C3759       C  0.02723094  0.62910292  0.68447623     0.10790
C3760       C  0.04041678  0.63619039  0.69319618    -0.06330
C3761       C  0.04168654  0.65330467  0.69381533    -0.17570
C3762       C  0.03061782  0.66338737  0.68566322     0.10820
S3763       S  0.02336686  0.60737658  0.68406574    -0.32530
S3764       S  0.03323136  0.68514847  0.68843086    -0.32540
H3765       H  0.01645668  0.68877605  0.68808396     0.28830
H3766       H  0.02861241  0.60455998  0.70021521     0.28830
H3767       H  0.00667082  0.63364418  0.66872953     0.19420
H3768       H  0.05158109  0.65899793  0.70055491     0.19430
C3769       C  0.13748828  0.68865283  0.54091967    -0.06400
C3770       C  0.14671530  0.69738921  0.52930173    -0.17530
C3771       C  0.15583333  0.68929939  0.51719283     0.10790
C3772       C  0.15509722  0.67199262  0.51614913    -0.06330
C3773       C  0.14570367  0.66337097  0.52768922    -0.17570
C3774       C  0.13726244  0.67136478  0.54015804     0.10820
S3775       S  0.16882125  0.70186109  0.50446352    -0.32530
S3776       S  0.12799641  0.65856997  0.55557161    -0.32540
H3777       H  0.13331544  0.66822456  0.56880221     0.28830
H3778       H  0.18006100  0.68968660  0.49990185     0.28830
H3779       H  0.14723360  0.71064398  0.52998095     0.19420
H3780       H  0.14563635  0.65008488  0.52746957     0.19430
C3781       C  0.01704630  0.67618014  0.65231355    -0.06400
C3782       C  0.01749410  0.69336852  0.65291649    -0.17530
C3783       C  0.02869463  0.70225551  0.64344460     0.10790
C3784       C  0.03987411  0.69380093  0.63323223    -0.06330
C3785       C  0.03828277  0.67677509  0.63150436    -0.17570
C3786       C  0.02685616  0.66797296  0.64066247     0.10820
S3787       S  0.02795403  0.72427897  0.64491154    -0.32530
S3788       S  0.02539826  0.64626293  0.63686489    -0.32540
H3789       H  0.00860955  0.64514250  0.64049385     0.28830
H3790       H  0.03277306  0.72710540  0.62862925     0.28830
H3791       H  0.00954804  0.69987526  0.66130350     0.19420
H3792       H  0.04636627  0.67012610  0.62335792     0.19430
C3793       C  0.01560405  0.34142436  0.67554996    -0.06400
C3794       C  0.01479907  0.35862721  0.67504363    -0.17530
C3795       C  0.02590199  0.36831841  0.68386847     0.10790
C3796       C  0.03843591  0.36071571  0.69313978    -0.06330
C3797       C  0.03849142  0.34357395  0.69444311    -0.17570
C3798       C  0.02713538  0.33395414  0.68609263     0.10820
S3799       S  0.02313907  0.39020267  0.68299441    -0.32530
S3800       S  0.02808774  0.31216640  0.68955701    -0.32540
H3801       H  0.01117454  0.30971772  0.68796821     0.28830
H3802       H  0.02832502  0.39304532  0.69915721     0.28830
H3803       H  0.00578512  0.36456268  0.66733530     0.19420
H3804       H  0.04772328  0.33747468  0.70175433     0.19430
C3805       C  0.13576374  0.45556030  0.69150055    -0.06400
C3806       C  0.12674886  0.46791208  0.68357925    -0.17530
C3807       C  0.13441995  0.48011017  0.67416013     0.10790
C3808       C  0.15176204  0.48016153  0.67283131    -0.06330
C3809       C  0.16066332  0.46847112  0.68186634    -0.17570
C3810       C  0.15300897  0.45600730  0.69061820     0.10820
S3811       S  0.12094163  0.49429944  0.66389107    -0.32530
S3812       S  0.16611463  0.44011253  0.69858961    -0.32540
H3813       H  0.15613936  0.42718456  0.69309460     0.28830
H3814       H  0.13201690  0.50019846  0.65237441     0.28830
H3815       H  0.11350591  0.46776825  0.68433771     0.19420
H3816       H  0.17390848  0.46832655  0.68114143     0.19430
C3817       C  0.95747067  0.36157749  0.69347987    -0.06400
C3818       C  0.95696054  0.36255992  0.67636951    -0.17530
C3819       C  0.96777920  0.35364036  0.66660998     0.10790
C3820       C  0.97934995  0.34301560  0.67394928    -0.06330
C3821       C  0.98046266  0.34266849  0.69111875    -0.17570
C3822       C  0.96979593  0.35191508  0.70091743     0.10820
S3823       S  0.96606031  0.35649104  0.64482294    -0.32530
S3824       S  0.97276965  0.35101996  0.72273972    -0.32540
H3825       H  0.96789404  0.36729266  0.72567598     0.28830
H3826       H  0.98287826  0.35491303  0.64183666     0.28830
H3827       H  0.94776532  0.37007626  0.67044794     0.19420
H3828       H  0.98940281  0.33479510  0.69695773     0.19430
C3829       C  0.86367664  0.45661979  0.69127801    -0.06400
C3830       C  0.86433009  0.45500727  0.67424136    -0.17530
C3831       C  0.85617822  0.46589196  0.66390146     0.10790
C3832       C  0.84707116  0.47910429  0.67060060    -0.06330
C3833       C  0.84640736  0.48072493  0.68773783    -0.17570
C3834       C  0.85476526  0.46982761  0.69808621     0.10820
S3835       S  0.85752124  0.46148744  0.64231746    -0.32530
S3836       S  0.85371711  0.47360792  0.71977884    -0.32540
H3837       H  0.86962933  0.46796944  0.72317517     0.28830
H3838       H  0.85680809  0.47773740  0.63701161     0.28830
H3839       H  0.87091344  0.44480937  0.66885769     0.19420
H3840       H  0.83900195  0.49030957  0.69314497     0.19430
C3841       C  0.01579653  0.32154905  0.65179282    -0.06400
C3842       C  0.01536515  0.30433233  0.65227305    -0.17530
C3843       C  0.02695098  0.29486697  0.64369556     0.10790
C3844       C  0.03937248  0.30279960  0.63456529    -0.06330
C3845       C  0.03899661  0.31991705  0.63320885    -0.17570
C3846       C  0.02730837  0.32926944  0.64140832     0.10820
S3847       S  0.02544423  0.27279184  0.64423579    -0.32530
S3848       S  0.02785219  0.35106962  0.63796551    -0.32540
H3849       H  0.01088518  0.35317719  0.63938898     0.28830
H3850       H  0.01122706  0.27188906  0.65390561     0.28830
H3851       H  0.00638362  0.29834484  0.65994898     0.19420
H3852       H  0.04815445  0.32620954  0.62597289     0.19430
C3853       C  0.04264771  0.69085956  0.35976096    -0.06400
C3854       C  0.03855050  0.69724263  0.34425900    -0.17530
C3855       C  0.02644421  0.69021649  0.33449953     0.10790
C3856       C  0.01702652  0.67711045  0.34060016    -0.06330
C3857       C  0.01978828  0.67176045  0.35665938    -0.17570
C3858       C  0.03295655  0.67771761  0.36588986     0.10820
S3859       S  0.02458593  0.69785917  0.31392149    -0.32530
S3860       S  0.03771972  0.66610710  0.38396423    -0.32540
H3861       H  0.05413753  0.66367532  0.37931764     0.28830
H3862       H  0.00748332  0.69820856  0.31398252     0.28830
H3863       H  0.04517494  0.70748213  0.33915954     0.19420
H3864       H  0.01292820  0.66137451  0.36124872     0.19430
C3865       C  0.13758372  0.69269587  0.45624980    -0.06400
C3866       C  0.12889298  0.68398872  0.46828324    -0.17530
C3867       C  0.13687480  0.67391034  0.47968571     0.10790
C3868       C  0.15421822  0.67291631  0.47945940    -0.06330
C3869       C  0.16283944  0.68243188  0.46799719    -0.17570
C3870       C  0.15486051  0.69176810  0.45617635     0.10820
S3871       S  0.12379320  0.66212418  0.49304330    -0.32530
S3872       S  0.16760470  0.70044592  0.44039436    -0.32540
H3873       H  0.15741696  0.69529260  0.42750716     0.28830
H3874       H  0.13529947  0.65046727  0.49802160     0.28830
H3875       H  0.11564344  0.68459550  0.46845660     0.19420
H3876       H  0.17608695  0.68179139  0.46759963     0.19430
C3877       C  0.04201438  0.63608480  0.30297999    -0.06400
C3878       C  0.03055556  0.64538014  0.29409591    -0.17530
C3879       C  0.01851113  0.65486471  0.30195248     0.10790
C3880       C  0.01773484  0.65493520  0.31930648    -0.06330
C3881       C  0.02894806  0.64510720  0.32799171    -0.17570
C3882       C  0.04112450  0.63608427  0.32020030     0.10820
S3883       S  0.00527278  0.66665777  0.28875988    -0.32530
S3884       S  0.05597781  0.62619826  0.33320401    -0.32540
H3885       H  0.06955768  0.63115724  0.32384616     0.28830
H3886       H  0.99787818  0.67636368  0.30067690     0.28830
H3887       H  0.03117384  0.64546998  0.28084998     0.19420
H3888       H  0.02864470  0.64483207  0.34121478     0.19430
C3889       C  0.95765352  0.69318512  0.36070823    -0.06400
C3890       C  0.95888605  0.67622036  0.36319963    -0.17530
C3891       C  0.97063616  0.66684116  0.35505495     0.10790
C3892       C  0.98138060  0.67430929  0.34373181    -0.06330
C3893       C  0.98069092  0.69142047  0.34188237    -0.17570
C3894       C  0.96923865  0.70093022  0.35042383     0.10820
S3895       S  0.97113116  0.64530311  0.35950442    -0.32530
S3896       S  0.97029228  0.72282892  0.34776829    -0.32540
H3897       H  0.96555148  0.72655966  0.36389061     0.28830
H3898       H  0.98785625  0.64567558  0.36346645     0.28830
H3899       H  0.95031457  0.67005028  0.37121941     0.19420
H3900       H  0.98870336  0.69743138  0.33330483     0.19430
C3901       C  0.86165069  0.69031237  0.45342510    -0.06400
C3902       C  0.85249020  0.69907725  0.46507346    -0.17530
C3903       C  0.84409592  0.69099892  0.47776151     0.10790
C3904       C  0.84546178  0.67379431  0.47926709    -0.06330
C3905       C  0.85472094  0.66514540  0.46765410    -0.17570
C3906       C  0.86247469  0.67305503  0.45467831     0.10820
S3907       S  0.83043349  0.70254707  0.49073838    -0.32530
S3908       S  0.87150712  0.66011081  0.43924913    -0.32540
H3909       H  0.86557488  0.66937417  0.42598822     0.28830
H3910       H  0.83391928  0.71811396  0.48421757     0.28830
H3911       H  0.85155663  0.71226196  0.46392542     0.19420
H3912       H  0.85502363  0.65186553  0.46812812     0.19430
C3913       C  0.84659390  0.67482394  0.51596988    -0.06400
C3914       C  0.83752739  0.68521084  0.52630588    -0.17530
C3915       C  0.84483304  0.69421369  0.53877200     0.10790
C3916       C  0.86199889  0.69375436  0.54065776    -0.06330
C3917       C  0.87130636  0.68445553  0.52955767    -0.17570
C3918       C  0.86391591  0.67496905  0.51727705     0.10820
S3919       S  0.83115813  0.70435603  0.55281668    -0.32530
S3920       S  0.87766897  0.66336089  0.50444564    -0.32540
H3921       H  0.86611944  0.65407803  0.49605509     0.28830
H3922       H  0.83928961  0.69867807  0.56689656     0.28830
H3923       H  0.82431924  0.68557022  0.52533389     0.19420
H3924       H  0.88451986  0.68426964  0.53071098     0.19430
C3925       C  0.95779888  0.69553302  0.63638667    -0.06400
C3926       C  0.95883795  0.69833170  0.65329322    -0.17530
C3927       C  0.97058792  0.69052207  0.66288555     0.10790
C3928       C  0.98137158  0.67906999  0.65572732    -0.06330
C3929       C  0.98086005  0.67672540  0.63871131    -0.17570
C3930       C  0.96953037  0.68513732  0.62893900     0.10820
S3931       S  0.97101431  0.69556710  0.68428919    -0.32530
S3932       S  0.97108085  0.68234457  0.60713621    -0.32540
H3933       H  0.96651101  0.69851043  0.60324355     0.28830
H3934       H  0.98816495  0.69515305  0.68522407     0.28830
H3935       H  0.95017182  0.70639448  0.65927404     0.19420
H3936       H  0.98908302  0.66800132  0.63303817     0.19430
C3937       C  0.95619777  0.63641480  0.69027789    -0.06400
C3938       C  0.96772358  0.64494749  0.69979628    -0.17530
C3939       C  0.98008551  0.65449542  0.69255635     0.10790
C3940       C  0.98110298  0.65533193  0.67530010    -0.06330
C3941       C  0.97027706  0.64584958  0.66589745    -0.17570
C3942       C  0.95763526  0.63689210  0.67305543     0.10820
S3943       S  0.99364144  0.66612395  0.70555200    -0.32530
S3944       S  0.94278647  0.62811137  0.65931552    -0.32540
H3945       H  0.92917118  0.63352848  0.66837196     0.28830
H3946       H  0.98783619  0.66017834  0.72062460     0.28830
H3947       H  0.96672395  0.64447254  0.71299210     0.19420
H3948       H  0.97095001  0.64636780  0.65266422     0.19430
C3949       C  0.86181632  0.54005664  0.69272002    -0.06400
C3950       C  0.87136533  0.52888261  0.68377758    -0.17530
C3951       C  0.86428110  0.51688875  0.67374499     0.10790
C3952       C  0.84695637  0.51571746  0.67281369    -0.06330
C3953       C  0.83757459  0.52582629  0.68316159    -0.17570
C3954       C  0.84461921  0.53826100  0.69250246     0.10820
S3955       S  0.87849165  0.50422800  0.66256746    -0.32530
S3956       S  0.83066367  0.55242359  0.70208501    -0.32540
H3957       H  0.83901986  0.56645378  0.69657152     0.28830
H3958       H  0.86738960  0.49772628  0.65155499     0.28830
H3959       H  0.88458845  0.52983916  0.68418682     0.19420
H3960       H  0.82436103  0.52486373  0.68306370     0.19430
C3961       C  0.80183099  0.36017594  0.53954963    -0.06400
C3962       C  0.79824346  0.34342630  0.53791241    -0.17530
C3963       C  0.80560718  0.33381803  0.52586567     0.10790
C3964       C  0.81735462  0.34075910  0.51527235    -0.06330
C3965       C  0.82047424  0.35765621  0.51633165    -0.17570
C3966       C  0.81263266  0.36746796  0.52807801     0.10820
S3967       S  0.79959782  0.31265094  0.52485526    -0.32530
S3968       S  0.81672886  0.38913979  0.52741684    -0.32540
H3969       H  0.80076512  0.39380386  0.53189233     0.28830
H3970       H  0.80030931  0.31198879  0.50772143     0.28830
H3971       H  0.78989472  0.33753561  0.54635271     0.19420
H3972       H  0.82941309  0.36316626  0.50823878     0.19430
C3973       C  0.80428877  0.45423437  0.63799525    -0.06400
C3974       C  0.81167089  0.46602049  0.62791051    -0.17530
C3975       C  0.82089707  0.47899660  0.63442585     0.10790
C3976       C  0.82274548  0.48031619  0.65163706    -0.06330
C3977       C  0.81372241  0.46954814  0.66163353    -0.17570
C3978       C  0.80506912  0.45630730  0.65513364     0.10820
S3979       S  0.83115906  0.49248099  0.62031251    -0.32530
S3980       S  0.79726362  0.44151376  0.66953647    -0.32540
H3981       H  0.80310139  0.42783482  0.66082497     0.28830
H3982       H  0.82294496  0.48746236  0.60604848     0.28830
H3983       H  0.81076650  0.46461496  0.61477360     0.19420
H3984       H  0.81476175  0.47049504  0.67482139     0.19430
C3985       C  0.80526964  0.45583449  0.36053068    -0.06400
C3986       C  0.79687474  0.46785688  0.35151159    -0.17530
C3987       C  0.80526873  0.47982323  0.34242750     0.10790
C3988       C  0.82262824  0.48038408  0.34294649    -0.06330
C3989       C  0.83085858  0.46860453  0.35245801    -0.17570
C3990       C  0.82254635  0.45622650  0.36079053     0.10820
S3991       S  0.79292517  0.49284644  0.32959734    -0.32530
S3992       S  0.83494679  0.44032161  0.36980301    -0.32540
H3993       H  0.82505841  0.42739627  0.36414507     0.28830
H3994       H  0.80431787  0.49414446  0.31690541     0.28830
H3995       H  0.78362259  0.46753571  0.35102184     0.19420
H3996       H  0.84408675  0.46826375  0.35247438     0.19430
C3997       C  0.80099445  0.36201662  0.45632179    -0.06400
C3998       C  0.81802241  0.36384545  0.45750179    -0.17530
C3999       C  0.82711535  0.35505978  0.46900081     0.10790
C4000       C  0.81921372  0.34368719  0.47937401    -0.06330
C4001       C  0.80203837  0.34299581  0.47931088    -0.17570
C4002       C  0.79283246  0.35202061  0.46789202     0.10820
S4003       S  0.84880397  0.35900055  0.46984485    -0.32530
S4004       S  0.77076272  0.35084643  0.46845732    -0.32540
H4005       H  0.76955800  0.34006370  0.48183739     0.28830
H4006       H  0.85035408  0.35574514  0.48667136     0.28830
H4007       H  0.82443278  0.37185780  0.44909760     0.19420
H4008       H  0.79590904  0.33472201  0.48763356     0.19430
C4009       C  0.80541282  0.54310191  0.35834194    -0.06400
C4010       C  0.81465878  0.53135445  0.36686477    -0.17530
C4011       C  0.82328398  0.51895135  0.35860575     0.10790
C4012       C  0.82228219  0.51781066  0.34130933    -0.06330
C4013       C  0.81239394  0.52922361  0.33303259    -0.17570
C4014       C  0.80443654  0.54196733  0.34112800     0.10820
S4015       S  0.83587603  0.50577607  0.37093746    -0.32530
S4016       S  0.79478473  0.55722226  0.32838874    -0.32540
H4017       H  0.80076499  0.57062381  0.33741604     0.28830
H4018       H  0.84961114  0.50761939  0.36097306     0.28830
H4019       H  0.81554937  0.53212152  0.38007165     0.19420
H4020       H  0.81145174  0.52880070  0.31988598     0.19430
C4021       C  0.80512926  0.64120833  0.45303883    -0.06400
C4022       C  0.81302478  0.63115202  0.46450757    -0.17530
C4023       C  0.82148685  0.63775588  0.47790654     0.10790
C4024       C  0.82147098  0.65491404  0.48046202    -0.06330
C4025       C  0.81191457  0.66470880  0.46997215    -0.17570
C4026       C  0.80452291  0.65827769  0.45595899     0.10820
S4027       S  0.83352508  0.62403593  0.49018321    -0.32530
S4028       S  0.79683694  0.67290873  0.44131278    -0.32540
H4029       H  0.80386502  0.66502301  0.42770456     0.28830
H4030       H  0.82558175  0.60947240  0.48551775     0.28830
H4031       H  0.81334415  0.61805257  0.46245150     0.19420
H4032       H  0.81184764  0.67787818  0.47160214     0.19430
C4033       C  0.80785109  0.54404455  0.63753744    -0.06400
C4034       C  0.82420075  0.54153959  0.63269071    -0.17530
C4035       C  0.83376004  0.52888343  0.63903595     0.10790
C4036       C  0.82680957  0.51725163  0.64978588    -0.06330
C4037       C  0.81023261  0.51890797  0.65393259    -0.17570
C4038       C  0.80098025  0.53248194  0.64870270     0.10820
S4039       S  0.85510622  0.52895366  0.63350113    -0.32530
S4040       S  0.78160633  0.53507951  0.65879139    -0.32540
H4041       H  0.78498294  0.55138020  0.66331857     0.28830
H4042       H  0.85622940  0.51197554  0.63155368     0.28830
H4043       H  0.83007277  0.54976376  0.62418662     0.19420
H4044       H  0.80499974  0.51056552  0.66283489     0.19430
C4045       C  0.80775174  0.63963509  0.54423646    -0.06400
C4046       C  0.82373295  0.63415420  0.54100296    -0.17530
C4047       C  0.83316621  0.64068186  0.52838179     0.10790
C4048       C  0.82619066  0.65201998  0.51726519    -0.06330
C4049       C  0.80982525  0.65671107  0.51963679    -0.17570
C4050       C  0.80097656  0.65157899  0.53347040     0.10820
S4051       S  0.85443370  0.63480584  0.52831331    -0.32530
S4052       S  0.78256781  0.66292067  0.53770913    -0.32540
H4053       H  0.78653883  0.66541428  0.55428453     0.28830
H4054       H  0.85618901  0.63465920  0.51138420     0.28830
H4055       H  0.82944825  0.62508199  0.54874502     0.19420
H4056       H  0.80464205  0.66612127  0.51182565     0.19430
C4057       C  0.15367041  0.31621758  0.51471353    -0.06400
C4058       C  0.13651046  0.31723704  0.51535201    -0.17530
C4059       C  0.12740067  0.30854956  0.52698217     0.10790
C4060       C  0.13558304  0.29925336  0.53909295    -0.06330
C4061       C  0.15259139  0.29720232  0.53768160    -0.17570
C4062       C  0.16153482  0.30512544  0.52543700     0.10820
S4063       S  0.10543875  0.30961591  0.52529230    -0.32530
S4064       S  0.18298015  0.30046801  0.52412189    -0.32540
H4065       H  0.18337607  0.30176511  0.50696560     0.28830
H4066       H  0.10280382  0.29339312  0.53050892     0.28830
H4067       H  0.13001845  0.32521456  0.50716204     0.19420
H4068       H  0.15914818  0.28965774  0.54639309     0.19430
C4069       C  0.15462583  0.51548501  0.31966506    -0.06400
C4070       C  0.14495054  0.52683451  0.32833616    -0.17530
C4071       C  0.13611242  0.53913707  0.32053172     0.10790
C4072       C  0.13621554  0.54006604  0.30331770    -0.06330
C4073       C  0.14533721  0.52845762  0.29444292    -0.17570
C4074       C  0.15457449  0.51622498  0.30231292     0.10820
S4075       S  0.12634396  0.55408866  0.33351699    -0.32530
S4076       S  0.16606204  0.50269535  0.28913832    -0.32540
H4077       H  0.17496358  0.49442528  0.30110021     0.28830
H4078       H  0.13156140  0.56765729  0.32425985     0.28830
H4079       H  0.14468011  0.52654028  0.34156199     0.19420
H4080       H  0.14547320  0.52909490  0.28119784     0.19430
C4081       C  0.19132998  0.35869161  0.45488753    -0.06400
C4082       C  0.17852255  0.36690398  0.46303973    -0.17530
C4083       C  0.16955538  0.35945212  0.47567374     0.10790
C4084       C  0.17246109  0.34278349  0.47957439    -0.06330
C4085       C  0.18542024  0.33479071  0.47159484    -0.17570
C4086       C  0.19556250  0.34281085  0.46046613     0.10820
S4087       S  0.15475545  0.37218495  0.48588056    -0.32530
S4088       S  0.21433601  0.33238834  0.45540347    -0.32540
H4089       H  0.22378338  0.34680941  0.45531131     0.28830
H4090       H  0.15462309  0.36339330  0.50051692     0.28830
H4091       H  0.17527660  0.37927729  0.45958770     0.19420
H4092       H  0.18822195  0.32219446  0.47461500     0.19430
C4093       C  0.19272934  0.45708327  0.36324234    -0.06400
C4094       C  0.17570464  0.45783214  0.36524952    -0.17530
C4095       C  0.16621195  0.46897717  0.35639253     0.10790
C4096       C  0.17366132  0.47953322  0.34486831    -0.06330
C4097       C  0.19080261  0.47928108  0.34346710    -0.17570
C4098       C  0.20039120  0.46851712  0.35273909     0.10820
S4099       S  0.14459116  0.46904913  0.36026005    -0.32530
S4100       S  0.22229490  0.47021606  0.35070725    -0.32540
H4101       H  0.22572786  0.46578798  0.36698656     0.28830
H4102       H  0.14463362  0.48580335  0.36426081     0.28830
H4103       H  0.16962064  0.44933076  0.37341734     0.19420
H4104       H  0.19682308  0.48715694  0.33476796     0.19430
C4105       C  0.18686523  0.35735925  0.54349991    -0.06400
C4106       C  0.19653709  0.35020836  0.53126533    -0.17530
C4107       C  0.18955639  0.34166805  0.51812110     0.10790
C4108       C  0.17227163  0.34068124  0.51683100    -0.06330
C4109       C  0.16267604  0.34864892  0.52871892    -0.17570
C4110       C  0.16966940  0.35652723  0.54214779     0.10820
S4111       S  0.20318976  0.33095031  0.50450007    -0.32530
S4112       S  0.15588026  0.36356291  0.55786869    -0.32540
H4113       H  0.16562093  0.35798875  0.57093150     0.28830
H4114       H  0.21780306  0.33861439  0.50940282     0.28830
H4115       H  0.20972414  0.35084425  0.53235535     0.19420
H4116       H  0.14944972  0.34777094  0.52810257     0.19430
C4117       C  0.19137498  0.45421565  0.63505035    -0.06400
C4118       C  0.17433890  0.45445715  0.63291905    -0.17530
C4119       C  0.16458686  0.46652223  0.63993310     0.10790
C4120       C  0.17180461  0.47890601  0.64964237    -0.06330
C4121       C  0.18886759  0.47874064  0.65187148    -0.17570
C4122       C  0.19867970  0.46661854  0.64469822     0.10820
S4123       S  0.14288001  0.46474285  0.63652073    -0.32530
S4124       S  0.22032592  0.46772756  0.64832509    -0.32540
H4125       H  0.21871531  0.46063904  0.66395699     0.28830
H4126       H  0.14045569  0.48150245  0.63412464     0.28830
H4127       H  0.16832969  0.44489889  0.62598486     0.19420
H4128       H  0.19452539  0.48764831  0.65990137     0.19430
C4129       C  0.19228127  0.54015837  0.35930699    -0.06400
C4130       C  0.19810406  0.53571670  0.34367544    -0.17530
C4131       C  0.19041283  0.52379425  0.33416462     0.10790
C4132       C  0.17707039  0.51495603  0.34059764    -0.06330
C4133       C  0.17209743  0.51814604  0.35669323    -0.17570
C4134       C  0.17881952  0.53110700  0.36571866     0.10820
S4135       S  0.19774099  0.52125665  0.31354553    -0.32530
S4136       S  0.16784123  0.53643171  0.38400926    -0.32540
H4137       H  0.16600394  0.55293438  0.37930756     0.28830
H4138       H  0.19704220  0.50413924  0.31373626     0.28830
H4139       H  0.20849857  0.54185775  0.33831634     0.19420
H4140       H  0.16157908  0.51168918  0.36156210     0.19430
C4141       C  0.19498766  0.63444962  0.45489004    -0.06400
C4142       C  0.17801157  0.63212205  0.45494151    -0.17530
C4143       C  0.16796219  0.63985687  0.46633356     0.10790
C4144       C  0.17487694  0.65006860  0.47852588    -0.06330
C4145       C  0.19193955  0.65236199  0.47860261    -0.17570
C4146       C  0.20204568  0.64481385  0.46684667     0.10820
S4147       S  0.14628791  0.63671620  0.46393548    -0.32530
S4148       S  0.22383664  0.64837554  0.46753136    -0.32540
H4149       H  0.22329782  0.66194255  0.47814233     0.28830
H4150       H  0.14394171  0.63152864  0.48006582     0.28830
H4151       H  0.17235689  0.62454522  0.44564198     0.19420
H4152       H  0.19725803  0.66064568  0.48746679     0.19430
C4153       C  0.19536888  0.63777205  0.54181132    -0.06400
C4154       C  0.18645444  0.62820611  0.53064359    -0.17530
C4155       C  0.17772192  0.63537530  0.51767853     0.10790
C4156       C  0.17854388  0.65250358  0.51524648    -0.06330
C4157       C  0.18860818  0.66182571  0.52562576    -0.17570
C4158       C  0.19635668  0.65488297  0.53918256     0.10820
S4159       S  0.16425626  0.62267946  0.50572023    -0.32530
S4160       S  0.20509119  0.66900500  0.55371921    -0.32540
H4161       H  0.19844599  0.66105924  0.56748471     0.28830
H4162       H  0.17010847  0.60745896  0.51131153     0.28830
H4163       H  0.18568191  0.61510680  0.53256416     0.19420
H4164       H  0.18898568  0.67502143  0.52422001     0.19430
C4165       C  0.19598887  0.53913252  0.63536305    -0.06400
C4166       C  0.18568145  0.52878481  0.62629674    -0.17530
C4167       C  0.17572588  0.51708810  0.63394170     0.10790
C4168       C  0.17646549  0.51510002  0.65113674    -0.06330
C4169       C  0.18777372  0.52456421  0.65998191    -0.17570
C4170       C  0.19712991  0.53676191  0.65248078     0.10820
S4171       S  0.16165759  0.50616102  0.62106232    -0.32530
S4172       S  0.20854865  0.55001695  0.66590860    -0.32540
H4173       H  0.20307233  0.56455499  0.65842693     0.28830
H4174       H  0.14810119  0.50912784  0.63109040     0.28830
H4175       H  0.18477693  0.53035410  0.61316064     0.19420
H4176       H  0.18831794  0.52340558  0.67317300     0.19430
C4177       C  0.04020460  0.30488210  0.36023416    -0.06400
C4178       C  0.04168334  0.32197345  0.35989700    -0.17530
C4179       C  0.03030488  0.33181819  0.35186983     0.10790
C4180       C  0.01696549  0.32452422  0.34347120    -0.06330
C4181       C  0.01507896  0.30740063  0.34433489    -0.17570
C4182       C  0.02639756  0.29756387  0.35275985     0.10820
S4183       S  0.03402239  0.35361141  0.35285435    -0.32530
S4184       S  0.02233106  0.27588902  0.35369321    -0.32540
H4185       H  0.02887960  0.27373414  0.36946364     0.28830
H4186       H  0.01762850  0.35851769  0.35198039     0.28830
H4187       H  0.05210873  0.32782540  0.36563020     0.19420
H4188       H  0.00502992  0.30156086  0.33797282     0.19430
C4189       C  0.13647943  0.30258164  0.45334089    -0.06400
C4190       C  0.12860034  0.31642332  0.45994988    -0.17530
C4191       C  0.13574864  0.32593388  0.47222054     0.10790
C4192       C  0.15083174  0.32101059  0.47912905    -0.06330
C4193       C  0.15792826  0.30630200  0.47377901    -0.17570
C4194       C  0.15157582  0.29764621  0.46043446     0.10820
S4195       S  0.12485110  0.34432660  0.47781734    -0.32530
S4196       S  0.16473569  0.28208532  0.45204349    -0.32540
H4197       H  0.16311739  0.28784034  0.43588582     0.28830
H4198       H  0.13272889  0.34721991  0.49269257     0.28830
H4199       H  0.11685906  0.32032457  0.45524912     0.19420
H4200       H  0.16941839  0.30231870  0.47904610     0.19430
C4201       C  0.03821853  0.36137168  0.29999937    -0.06400
C4202       C  0.03760426  0.34419826  0.29926491    -0.17530
C4203       C  0.02617705  0.33532463  0.30835328     0.10790
C4204       C  0.01544533  0.34361747  0.31910671    -0.06330
C4205       C  0.01492927  0.36082954  0.31860182    -0.17570
C4206       C  0.02602937  0.36975712  0.30903851     0.10820
S4207       S  0.02590684  0.31340351  0.30562923    -0.32530
S4208       S  0.02380950  0.39172434  0.30882307    -0.32540
H4209       H  0.02917726  0.39366120  0.29258132     0.28830
H4210       H  0.00904308  0.31170367  0.30866950     0.28830
H4211       H  0.04641292  0.33751138  0.29194740     0.19420
H4212       H  0.00633702  0.36740632  0.32625782     0.19430
C4213       C  0.13812181  0.45295033  0.30301262    -0.06400
C4214       C  0.12910233  0.46565672  0.31031244    -0.17530
C4215       C  0.13671994  0.47802022  0.31950507     0.10790
C4216       C  0.15402589  0.47800030  0.32109994    -0.06330
C4217       C  0.16297457  0.46559575  0.31315150    -0.17570
C4218       C  0.15533186  0.45299192  0.30456190     0.10820
S4219       S  0.12322145  0.49244784  0.32937891    -0.32530
S4220       S  0.16829338  0.43659379  0.29741719    -0.32540
H4221       H  0.15766436  0.42403015  0.30252393     0.28830
H4222       H  0.13413769  0.49782685  0.34137843     0.28830
H4223       H  0.11588229  0.46570317  0.30921394     0.19420
H4224       H  0.17618448  0.46524839  0.31435563     0.19430
C4225       C  0.95464416  0.30433144  0.35842343    -0.06400
C4226       C  0.96657828  0.31248516  0.36773667    -0.17530
C4227       C  0.97891156  0.32193649  0.36038565     0.10790
C4228       C  0.97967497  0.32300202  0.34304777    -0.06330
C4229       C  0.96848087  0.31369321  0.33384726    -0.17570
C4230       C  0.95577159  0.30494983  0.34118378     0.10820
S4231       S  0.99253039  0.33240085  0.37421331    -0.32530
S4232       S  0.94049245  0.29659589  0.32764912    -0.32540
H4233       H  0.92716358  0.30217764  0.33702592     0.28830
H4234       H  0.99723556  0.34466863  0.36341344     0.28830
H4235       H  0.96599774  0.31189538  0.38097093     0.19420
H4236       H  0.96890887  0.31418565  0.32060453     0.19430
C4237       C  0.85930146  0.30318087  0.45541454    -0.06400
C4238       C  0.84219843  0.30238001  0.45439425    -0.17530
C4239       C  0.83218040  0.31039796  0.46563635     0.10790
C4240       C  0.83923852  0.31998686  0.47823904    -0.06330
C4241       C  0.85639448  0.32028850  0.47969539    -0.17570
C4242       C  0.86645264  0.31187305  0.46857750     0.10820
S4243       S  0.81044466  0.30756099  0.46314684    -0.32530
S4244       S  0.88820336  0.31248930  0.47210027    -0.32540
H4245       H  0.89117048  0.29646682  0.46648334     0.28830
H4246       H  0.80691065  0.30792916  0.47992211     0.28830
H4247       H  0.83646441  0.29563055  0.44452755     0.19420
H4248       H  0.86204433  0.32747663  0.48928576     0.19430
C4249       C  0.95635396  0.36252326  0.30298940    -0.06400
C4250       C  0.95726694  0.36550784  0.31987649    -0.17530
C4251       C  0.96891371  0.35776521  0.32966149     0.10790
C4252       C  0.97974500  0.34620685  0.32277334    -0.06330
C4253       C  0.97928738  0.34356157  0.30579214    -0.17570
C4254       C  0.96807042  0.35190314  0.29580172     0.10820
S4255       S  0.96937651  0.36314372  0.35095407    -0.32530
S4256       S  0.96981048  0.34878781  0.27405699    -0.32540
H4257       H  0.96552611  0.36496824  0.26990910     0.28830
H4258       H  0.98617861  0.36682577  0.35044534     0.28830
H4259       H  0.94862238  0.37371515  0.32568642     0.19420
H4260       H  0.98753418  0.33472477  0.30031765     0.19430
C4261       C  0.85861704  0.45510049  0.30103453    -0.06400
C4262       C  0.86770240  0.46635580  0.31029824    -0.17530
C4263       C  0.86009181  0.47817090  0.32012095     0.10790
C4264       C  0.84280326  0.47981632  0.31982271    -0.06330
C4265       C  0.83380658  0.46881389  0.31008696    -0.17570
C4266       C  0.84135055  0.45633827  0.30113801     0.10820
S4267       S  0.87333046  0.48902636  0.33390275    -0.32530
S4268       S  0.82798510  0.44148203  0.29180151    -0.32540
H4269       H  0.83709461  0.42787007  0.29719056     0.28830
H4270       H  0.86267256  0.48808070  0.34721519     0.28830
H4271       H  0.88093002  0.46540443  0.31057451     0.19420
H4272       H  0.82055275  0.46931485  0.31025271     0.19430
C4273       C  0.84433153  0.51658173  0.31992327    -0.06400
C4274       C  0.85796423  0.52390142  0.32730116    -0.17530
C4275       C  0.86800096  0.53490619  0.31893130     0.10790
C4276       C  0.86304777  0.54103017  0.30345717    -0.06330
C4277       C  0.84936177  0.53364649  0.29597630    -0.17570
C4278       C  0.84034229  0.52125338  0.30371419     0.10820
S4279       S  0.88735883  0.53929133  0.32848591    -0.32530
S4280       S  0.82309038  0.51323728  0.29259473    -0.32540
H4281       H  0.82547045  0.49711472  0.29760602     0.28830
H4282       H  0.89611357  0.53910965  0.31365296     0.28830
H4283       H  0.86109226  0.52081629  0.33976516     0.19420
H4284       H  0.84527386  0.53767816  0.28406615     0.19430
C4285       C  0.95513810  0.63934115  0.30195886    -0.06400
C4286       C  0.96729347  0.63001430  0.30976017    -0.17530
C4287       C  0.97984745  0.63742866  0.31882527     0.10790
C4288       C  0.98040609  0.65477933  0.31994948    -0.06330
C4289       C  0.96864977  0.66399379  0.31135715    -0.17570
C4290       C  0.95598343  0.65658476  0.30269855     0.10820
S4291       S  0.99382826  0.62369251  0.32903366    -0.32530
S4292       S  0.94051012  0.66993892  0.29432947    -0.32540
H4293       H  0.92726410  0.66023159  0.29952325     0.28830
H4294       H  0.99972450  0.63472328  0.34068176     0.28830
H4295       H  0.96672950  0.61675472  0.30915693     0.19420
H4296       H  0.96882414  0.67725598  0.31212993     0.19430
C4297       C  0.95683386  0.30126496  0.63441182    -0.06400
C4298       C  0.95629674  0.30048865  0.65155017    -0.17530
C4299       C  0.96748674  0.30900623  0.66123309     0.10790
C4300       C  0.97931484  0.31927988  0.65382995    -0.06330
C4301       C  0.98047480  0.31939781  0.63666600    -0.17570
C4302       C  0.96963253  0.31028719  0.62693755     0.10820
S4303       S  0.96597323  0.30602690  0.68301900    -0.32530
S4304       S  0.97316225  0.31039959  0.60518816    -0.32540
H4305       H  0.96814008  0.29408883  0.60277196     0.28830
H4306       H  0.98289583  0.30701742  0.68572188     0.28830
H4307       H  0.94685369  0.29341477  0.65759468     0.19420
H4308       H  0.98962431  0.32695793  0.63075460     0.19430
C4309       C  0.86058970  0.30565432  0.53914592    -0.06400
C4310       C  0.85110489  0.29620454  0.52832040    -0.17530
C4311       C  0.84124250  0.30352943  0.51626528     0.10790
C4312       C  0.84081852  0.32079916  0.51500608    -0.06330
C4313       C  0.85115304  0.33011990  0.52508887    -0.17570
C4314       C  0.86083415  0.32287465  0.53722765     0.10820
S4315       S  0.82880902  0.29066487  0.50331013    -0.32530
S4316       S  0.87177849  0.33609459  0.55119684    -0.32540
H4317       H  0.86924598  0.35089607  0.54273055     0.28830
H4318       H  0.83438891  0.27548645  0.50927031     0.28830
H4319       H  0.85110365  0.28300431  0.52964363     0.19420
H4320       H  0.85092662  0.34333650  0.52399921     0.19430
C4321       C  0.68654299  0.13508923  0.54150391    -0.06400
C4322       C  0.69584032  0.14460293  0.53061012    -0.17530
C4323       C  0.68849079  0.15393307  0.51823052     0.10790
C4324       C  0.67132721  0.15288137  0.51575166    -0.06330
C4325       C  0.66216807  0.14292667  0.52640374    -0.17570
C4326       C  0.66939118  0.13444693  0.53936041     0.10820
S4327       S  0.70186744  0.16787027  0.50758342    -0.32530
S4328       S  0.65564543  0.12479756  0.55365719    -0.32540
H4329       H  0.66381970  0.13073973  0.56759607     0.28830
H4330       H  0.68990647  0.17914511  0.50289698     0.28830
H4331       H  0.70897850  0.14541283  0.53223085     0.19420
H4332       H  0.64895706  0.14266471  0.52533781     0.19430
C4333       C  0.69198753  0.03948394  0.63699266    -0.06400
C4334       C  0.68208443  0.02842369  0.62824960    -0.17530
C4335       C  0.67337067  0.01584589  0.63611921     0.10790
C4336       C  0.67467692  0.01406911  0.65333016    -0.06330
C4337       C  0.68554321  0.02440687  0.66177940    -0.17570
C4338       C  0.69356591  0.03736125  0.65408812     0.10820
S4339       S  0.66090594  0.00299987  0.62317090    -0.32530
S4340       S  0.70386025  0.05166609  0.66736333    -0.32540
H4341       H  0.69746056  0.06562303  0.65951508     0.28830
H4342       H  0.65817891  0.99017029  0.63413682     0.28830
H4343       H  0.68095161  0.02968638  0.61510306     0.19420
H4344       H  0.68715183  0.02302714  0.67482368     0.19430
C4345       C  0.53904819  0.13298755  0.69185978    -0.06400
C4346       C  0.53351957  0.12596945  0.67712447    -0.17530
C4347       C  0.52098081  0.13312391  0.66791345     0.10790
C4348       C  0.51461157  0.14850372  0.67257495    -0.06330
C4349       C  0.51934777  0.15499507  0.68775226    -0.17570
C4350       C  0.53057913  0.14693882  0.69784158     0.10820
S4351       S  0.51340634  0.12154826  0.65085749    -0.32530
S4352       S  0.53231462  0.15457398  0.71843451    -0.32540
H4353       H  0.53420204  0.13892534  0.72544351     0.28830
H4354       H  0.49723895  0.12700470  0.65267757     0.28830
H4355       H  0.53894590  0.11480335  0.67252929     0.19420
H4356       H  0.51409086  0.16644529  0.69191518     0.19430
C4357       C  0.63710833  0.03937441  0.69292078    -0.06400
C4358       C  0.63049711  0.03372913  0.67798833    -0.17530
C4359       C  0.63816791  0.02165835  0.66852445     0.10790
C4360       C  0.65249690  0.01393536  0.67434032    -0.06330
C4361       C  0.65848702  0.01860409  0.68971333    -0.17570
C4362       C  0.65163546  0.03157167  0.69859646     0.10820
S4363       S  0.62922616  0.01751589  0.64883492    -0.32530
S4364       S  0.66366831  0.03835910  0.71569258    -0.32540
H4365       H  0.66494701  0.05444099  0.70956024     0.28830
H4366       H  0.63547960  0.00172744  0.64732542     0.28830
H4367       H  0.61942752  0.03902421  0.67310069     0.19420
H4368       H  0.66973574  0.01322892  0.69413182     0.19430
C4369       C  0.69597234  0.03557639  0.36386808    -0.06400
C4370       C  0.67956373  0.03216598  0.36788686    -0.17530
C4371       C  0.66981942  0.02215172  0.35782574     0.10790
C4372       C  0.67654154  0.01565089  0.34327352    -0.06330
C4373       C  0.69322584  0.01798271  0.34000712    -0.17570
C4374       C  0.70316877  0.02712740  0.35055929     0.10820
S4375       S  0.64823266  0.02022755  0.36205964    -0.32530
S4376       S  0.72498399  0.02754422  0.34693644    -0.32540
H4377       H  0.72527814  0.01539042  0.33472670     0.28830
H4378       H  0.64850985  0.02769979  0.37756249     0.28830
H4379       H  0.67394957  0.03839597  0.37812533     0.19420
H4380       H  0.69830556  0.01330910  0.32871311     0.19430
C4381       C  0.69162777  0.13518481  0.45544013    -0.06400
C4382       C  0.67758480  0.12794465  0.46230306    -0.17530
C4383       C  0.66830660  0.13593127  0.47433529     0.10790
C4384       C  0.67247523  0.15208585  0.47909611    -0.06330
C4385       C  0.68649136  0.15922527  0.47226453    -0.17570
C4386       C  0.69668909  0.15061014  0.46159800     0.10820
S4387       S  0.65079677  0.12508501  0.48212284    -0.32530
S4388       S  0.71633293  0.15974652  0.45745141    -0.32540
H4389       H  0.72472425  0.14468596  0.45690392     0.28830
H4390       H  0.65306391  0.13024723  0.49820727     0.28830
H4391       H  0.67348212  0.11607539  0.45807119     0.19420
H4392       H  0.68963374  0.17173563  0.47529957     0.19430
C4393       C  0.63431731  0.03925249  0.30031724    -0.06400
C4394       C  0.64359427  0.04608807  0.31282366    -0.17530
C4395       C  0.65572732  0.03709828  0.32095570     0.10790
C4396       C  0.65701918  0.01966607  0.31845315    -0.06330
C4397       C  0.64907341  0.01371324  0.30422077    -0.17570
C4398       C  0.63754812  0.02304343  0.29551728     0.10820
S4399       S  0.67080164  0.04950255  0.33145836    -0.32530
S4400       S  0.62731549  0.01349596  0.27845163    -0.32540
H4401       H  0.61281386  0.02271878  0.27954414     0.28830
H4402       H  0.66691104  0.06478363  0.32447672     0.28830
H4403       H  0.64204777  0.05901438  0.31545887     0.19420
H4404       H  0.65201996  0.00196974  0.29912277     0.19430
C4405       C  0.69214220  0.95657643  0.36050187    -0.06400
C4406       C  0.67524291  0.95850307  0.36289515    -0.17530
C4407       C  0.66626169  0.97042580  0.35442766     0.10790
C4408       C  0.67416952  0.98065439  0.34281726    -0.06330
C4409       C  0.69120607  0.97905996  0.34096740    -0.17570
C4410       C  0.70027684  0.96763108  0.34995343     0.10820
S4411       S  0.64468916  0.97136938  0.35885794    -0.32530
S4412       S  0.72220056  0.96817686  0.34756362    -0.32540
H4413       H  0.72558839  0.96390667  0.36389557     0.28830
H4414       H  0.64281404  0.98783623  0.35458510     0.28830
H4415       H  0.66879719  0.95030572  0.37109324     0.19420
H4416       H  0.69756506  0.98629048  0.33194258     0.19430
C4417       C  0.69426482  0.86208433  0.45684795    -0.06400
C4418       C  0.67713757  0.86311081  0.45752515    -0.17530
C4419       C  0.66813691  0.85392399  0.46878845     0.10790
C4420       C  0.67625131  0.84287154  0.47936677    -0.06330
C4421       C  0.69344865  0.84296693  0.47975763    -0.17570
C4422       C  0.70250868  0.85252204  0.46874107     0.10820
S4423       S  0.64628791  0.85696907  0.46910492    -0.32530
S4424       S  0.72447104  0.85204786  0.47066526    -0.32540
H4425       H  0.72683125  0.86835190  0.46558546     0.28830
H4426       H  0.64458236  0.85401712  0.48597855     0.28830
H4427       H  0.67059609  0.87077019  0.44889246     0.19420
H4428       H  0.69988079  0.83504286  0.48822853     0.19430
C4429       C  0.35981131  0.03574067  0.69492832    -0.06400
C4430       C  0.34268738  0.03673804  0.69497421    -0.17530
C4431       C  0.33312120  0.02580514  0.68600712     0.10790
C4432       C  0.34074649  0.01363623  0.67626529    -0.06330
C4433       C  0.35784656  0.01184105  0.67722626    -0.17570
C4434       C  0.36743358  0.02265677  0.68654410     0.10820
S4435       S  0.31124205  0.02839743  0.68747761    -0.32530
S4436       S  0.38928110  0.01947457  0.68773506    -0.32540
H4437       H  0.38976640  0.00475759  0.67878244     0.28830
H4438       H  0.30737425  0.01187331  0.68478812     0.28830
H4439       H  0.33662827  0.04647537  0.70164966     0.19420
H4440       H  0.36381820  0.00258533  0.66988343     0.19430
C4441       C  0.45508276  0.13118616  0.68948208    -0.06400
C4442       C  0.45479320  0.13136935  0.67232207    -0.17530
C4443       C  0.46625149  0.14045319  0.66331951     0.10790
C4444       C  0.47836510  0.14962953  0.67160936    -0.06330
C4445       C  0.47915448  0.14864327  0.68875457    -0.17570
C4446       C  0.46787160  0.13940276  0.69771295     0.10820
S4447       S  0.46510751  0.14039611  0.64123589    -0.32530
S4448       S  0.47062952  0.13853781  0.71958075    -0.32540
H4449       H  0.46474046  0.12242893  0.72128907     0.28830
H4450       H  0.45193926  0.12940070  0.63978147     0.28830
H4451       H  0.44512086  0.12492615  0.66596891     0.19420
H4452       H  0.48807209  0.15573798  0.69540126     0.19430
C4453       C  0.35967758  0.95210610  0.68932489    -0.06400
C4454       C  0.34730630  0.96113733  0.69725330    -0.17530
C4455       C  0.33839463  0.97338436  0.68901678     0.10790
C4456       C  0.34232317  0.97720159  0.67264055    -0.06330
C4457       C  0.35515116  0.96871969  0.66503759    -0.17570
C4458       C  0.36338672  0.95593443  0.67283934     0.10820
S4459       S  0.32160029  0.98341720  0.69925889    -0.32530
S4460       S  0.37693652  0.94395409  0.66020081    -0.32540
H4461       H  0.37113112  0.92879291  0.66600640     0.28830
H4462       H  0.32301612  0.97511203  0.71427381     0.28830
H4463       H  0.34437160  0.95833992  0.70985675     0.19420
H4464       H  0.35824574  0.97141733  0.65249834     0.19430
C4465       C  0.45567658  0.85877188  0.69208539    -0.06400
C4466       C  0.46700720  0.84973329  0.70134488    -0.17530
C4467       C  0.47904178  0.83997934  0.69390950     0.10790
C4468       C  0.47998589  0.83937758  0.67656722    -0.06330
C4469       C  0.46928908  0.84935335  0.66744926    -0.17570
C4470       C  0.45697692  0.85858368  0.67486917     0.10820
S4471       S  0.49212498  0.82864767  0.70761653    -0.32530
S4472       S  0.44240669  0.86834069  0.66147184    -0.32540
H4473       H  0.42862885  0.86341797  0.67055558     0.28830
H4474       H  0.49774379  0.81727721  0.69628647     0.28830
H4475       H  0.46620417  0.84994768  0.71458096     0.19420
H4476       H  0.46990117  0.84922197  0.65420822     0.19430
C4477       C  0.30337344  0.03771096  0.63301636    -0.06400
C4478       C  0.32050100  0.03865452  0.63338137    -0.17530
C4479       C  0.32986342  0.02741504  0.64225826     0.10790
C4480       C  0.32202147  0.01492742  0.65141547    -0.06330
C4481       C  0.30488676  0.01360225  0.65045494    -0.17570
C4482       C  0.29555989  0.02460416  0.64118908     0.10820
S4483       S  0.35178204  0.02988184  0.64131579    -0.32530
S4484       S  0.27381845  0.02102316  0.64015802    -0.32540
H4485       H  0.27204956  0.02675082  0.62401866     0.28830
H4486       H  0.35547879  0.01314236  0.64284345     0.28830
H4487       H  0.32669955  0.04850893  0.62701066     0.19420
H4488       H  0.29855621  0.00437556  0.65749292     0.19430
C4489       C  0.69530245  0.95665465  0.63372994    -0.06400
C4490       C  0.68235265  0.94962830  0.64222836    -0.17530
C4491       C  0.67369273  0.95827132  0.65420136     0.10790
C4492       C  0.67665470  0.97549159  0.65658268    -0.06330
C4493       C  0.69111442  0.98168216  0.64927115    -0.17570
C4494       C  0.70014363  0.97269135  0.63772123     0.10820
S4495       S  0.66214035  0.94530969  0.66791814    -0.32530
S4496       S  0.71765512  0.98242689  0.62846008    -0.32540
H4497       H  0.71714531  0.97361673  0.61369015     0.28830
H4498       H  0.65804223  0.93312589  0.65644667     0.28830
H4499       H  0.67986890  0.93671738  0.64033372     0.19420
H4500       H  0.69594349  0.99344152  0.65266826     0.19430
C4501       C  0.69495474  0.85983799  0.53847711    -0.06400
C4502       C  0.69734225  0.84279035  0.53824129    -0.17530
C4503       C  0.68966118  0.83283467  0.52669194     0.10790
C4504       C  0.67865454  0.83969521  0.51527898    -0.06330
C4505       C  0.67648779  0.85679005  0.51517661    -0.17570
C4506       C  0.68487546  0.86692910  0.52624076     0.10820
S4507       S  0.69451671  0.81137256  0.52704223    -0.32530
S4508       S  0.68261331  0.88871534  0.52355572    -0.32540
H4509       H  0.69891803  0.89237494  0.52770796     0.28830
H4510       H  0.69911907  0.81141315  0.51046055     0.28830
H4511       H  0.70511268  0.83699778  0.54728217     0.19420
H4512       H  0.66803972  0.86227746  0.50655512     0.19430
C4513       C  0.53869381  0.85882786  0.69502234    -0.06400
C4514       C  0.54126932  0.84186833  0.69402914    -0.17530
C4515       C  0.53064022  0.83165824  0.68543446     0.10790
C4516       C  0.51706790  0.83846955  0.67699772    -0.06330
C4517       C  0.51431361  0.85545645  0.67820364    -0.17570
C4518       C  0.52470011  0.86558751  0.68737102     0.10820
S4519       S  0.53547599  0.81006721  0.68588923    -0.32530
S4520       S  0.51905416  0.88685144  0.68916490    -0.32540
H4521       H  0.52452957  0.88849808  0.70539818     0.28830
H4522       H  0.51928894  0.80446177  0.68544401     0.28830
H4523       H  0.55188248  0.83641489  0.69981884     0.19420
H4524       H  0.50417178  0.86099040  0.67171367     0.19430
C4525       C  0.63046373  0.95836174  0.69362388    -0.06400
C4526       C  0.64398889  0.96555949  0.70154929    -0.17530
C4527       C  0.65521572  0.97535406  0.69309550     0.10790
C4528       C  0.65218475  0.97929270  0.67653634    -0.06330
C4529       C  0.63754424  0.97402302  0.66924776    -0.17570
C4530       C  0.62702861  0.96314312  0.67727777     0.10820
S4531       S  0.67382569  0.98063574  0.70381870    -0.32530
S4532       S  0.61156096  0.95378153  0.66471393    -0.32540
H4533       H  0.61711623  0.93776410  0.66792639     0.28830
H4534       H  0.68321512  0.98589346  0.69044847     0.28830
H4535       H  0.64664810  0.96247662  0.71415831     0.19420
H4536       H  0.63550673  0.97637242  0.65639259     0.19430
C4537       C  0.63520483  0.80429482  0.53914903    -0.06400
C4538       C  0.64394560  0.79488245  0.52771952    -0.17530
C4539       C  0.65407556  0.80215339  0.51592010     0.10790
C4540       C  0.65534374  0.81950871  0.51526829    -0.06330
C4541       C  0.64566488  0.82883635  0.52604566    -0.17570
C4542       C  0.63604725  0.82154630  0.53813818     0.10820
S4543       S  0.66510978  0.78820834  0.50283832    -0.32530
S4544       S  0.62663497  0.83507637  0.55280830    -0.32540
H4545       H  0.63118782  0.82564384  0.56648670     0.28830
H4546       H  0.67732456  0.79910006  0.49819508     0.28830
H4547       H  0.64324070  0.78162785  0.52829441     0.19420
H4548       H  0.64633868  0.84209764  0.52566535     0.19430
C4549       C  0.53768871  0.80132929  0.63247098    -0.06400
C4550       C  0.53724303  0.81850623  0.63192635    -0.17530
C4551       C  0.52633397  0.82741696  0.64162845     0.10790
C4552       C  0.51588694  0.81911798  0.65265492    -0.06330
C4553       C  0.51531895  0.80190982  0.65214277    -0.17570
C4554       C  0.52596050  0.79296651  0.64210150     0.10820
S4555       S  0.52630172  0.84938054  0.63927871    -0.32530
S4556       S  0.52380019  0.77098478  0.64208433    -0.32540
H4557       H  0.52854347  0.76894037  0.62566481     0.28830
H4558       H  0.50949234  0.85125430  0.64250850     0.28830
H4559       H  0.54579967  0.82512655  0.62425571     0.19420
H4560       H  0.50698617  0.79534643  0.66008149     0.19430
C4561       C  0.54072292  0.80333254  0.35948975    -0.06400
C4562       C  0.53274368  0.79411455  0.34731641    -0.17530
C4563       C  0.52022024  0.80080563  0.33767563     0.10790
C4564       C  0.51527238  0.81722264  0.34021034    -0.06330
C4565       C  0.52220467  0.82585125  0.35337543    -0.17570
C4566       C  0.53512733  0.81945842  0.36256311     0.10820
S4567       S  0.51145560  0.78760183  0.32241712    -0.32530
S4568       S  0.54496964  0.83347112  0.37643844    -0.32540
H4569       H  0.56086245  0.82962260  0.37101866     0.28830
H4570       H  0.49576544  0.79427871  0.32346597     0.28830
H4571       H  0.53643439  0.78156242  0.34507237     0.19420
H4572       H  0.51824486  0.83822937  0.35592280     0.19430
C4573       C  0.63598124  0.80118209  0.45648489    -0.06400
C4574       C  0.65298940  0.80154901  0.45429330    -0.17530
C4575       C  0.66324365  0.81003771  0.46496664     0.10790
C4576       C  0.65646743  0.81890928  0.47828198    -0.06330
C4577       C  0.63940706  0.81829965  0.48068346    -0.17570
C4578       C  0.62918434  0.80936825  0.47014568     0.10820
S4579       S  0.68485555  0.80886626  0.46050303    -0.32530
S4580       S  0.60771142  0.80863752  0.47507816    -0.32540
H4581       H  0.60539169  0.79247474  0.46956817     0.28830
H4582       H  0.69026175  0.80964065  0.47673297     0.28830
H4583       H  0.65844966  0.79535238  0.44391743     0.19420
H4584       H  0.63391022  0.82510968  0.49063374     0.19430
C4585       C  0.35886617  0.79773694  0.45511540    -0.06400
C4586       C  0.34170089  0.79809283  0.45518518    -0.17530
C4587       C  0.33305489  0.80676183  0.46717875     0.10790
C4588       C  0.34163538  0.81620585  0.47894923    -0.06330
C4589       C  0.35870596  0.81426180  0.47979719    -0.17570
C4590       C  0.36731424  0.80489996  0.46835397     0.10820
S4591       S  0.31109136  0.80499065  0.46693905    -0.32530
S4592       S  0.38901308  0.80245010  0.47151716    -0.32540
H4593       H  0.38978985  0.78658425  0.46481656     0.28830
H4594       H  0.30943743  0.80671702  0.48399195     0.28830
H4595       H  0.33491588  0.79192489  0.44559633     0.19420
H4596       H  0.36574410  0.82059478  0.48891656     0.19430
C4597       C  0.45580785  0.80052012  0.35902658    -0.06400
C4598       C  0.45416954  0.80055842  0.34197032    -0.17530
C4599       C  0.46525750  0.80876379  0.33191320     0.10790
C4600       C  0.47855535  0.81747797  0.33891598    -0.06330
C4601       C  0.48039039  0.81711862  0.35604770    -0.17570
C4602       C  0.46932515  0.80865486  0.36610486     0.10820
S4603       S  0.46129693  0.80757362  0.31024923    -0.32530
S4604       S  0.47328937  0.80859654  0.38778417    -0.32540
H4605       H  0.46736702  0.79263811  0.39046673     0.28830
H4606       H  0.47773405  0.80747929  0.30556556     0.28830
H4607       H  0.44387821  0.79437038  0.33633724     0.19420
H4608       H  0.49013296  0.82397906  0.36177987     0.19430
C4609       C  0.35864106  0.80410322  0.54189364    -0.06400
C4610       C  0.36733916  0.81656084  0.53383246    -0.17530
C4611       C  0.36045431  0.82559503  0.52104232     0.10790
C4612       C  0.34461865  0.82153416  0.51524277    -0.06330
C4613       C  0.33637627  0.80829257  0.52248101    -0.17570
C4614       C  0.34274948  0.80014010  0.53614602     0.10820
S4615       S  0.37282674  0.84219935  0.51327637    -0.32530
S4616       S  0.32894425  0.78654106  0.54667537    -0.32540
H4617       H  0.33300584  0.79245417  0.56233031     0.28830
H4618       H  0.36381361  0.84546865  0.49909402     0.28830
H4619       H  0.37961139  0.81965476  0.53774124     0.19420
H4620       H  0.32420667  0.80513063  0.51831641     0.19430
C4621       C  0.45710428  0.80103305  0.63537546    -0.06400
C4622       C  0.45812568  0.79724787  0.65209580    -0.17530
C4623       C  0.46963146  0.80473807  0.66220021     0.10790
C4624       C  0.48026878  0.81671971  0.65577245    -0.06330
C4625       C  0.47971351  0.82014514  0.63892642    -0.17570
C4626       C  0.46851507  0.81220295  0.62862946     0.10820
S4627       S  0.47008606  0.79855739  0.68328559    -0.32530
S4628       S  0.46972370  0.81662636  0.60707243    -0.32540
H4629       H  0.46539719  0.80073127  0.60201157     0.28830
H4630       H  0.48697943  0.79532297  0.68285643     0.28830
H4631       H  0.44963908  0.78862129  0.65752262     0.19420
H4632       H  0.48780391  0.82934177  0.63383454     0.19430
C4633       C  0.31930165  0.15206024  0.51593542    -0.06400
C4634       C  0.31000494  0.16068730  0.52757241    -0.17530
C4635       C  0.30126424  0.15267735  0.53983984     0.10790
C4636       C  0.30082474  0.13536334  0.54013535    -0.06330
C4637       C  0.30948431  0.12663873  0.52810569    -0.17570
C4638       C  0.31901598  0.13470403  0.51633629     0.10820
S4639       S  0.29272298  0.16543848  0.55569485    -0.32530
S4640       S  0.33146427  0.12202088  0.50336001    -0.32540
H4641       H  0.34601171  0.13001819  0.50755254     0.28830
H4642       H  0.29823326  0.15542212  0.56858835     0.28830
H4643       H  0.31046994  0.17394251  0.52784183     0.19420
H4644       H  0.30939039  0.11335777  0.52829612     0.19430
C4645       C  0.51460541  0.14975810  0.32151665    -0.06400
C4646       C  0.52501838  0.15899306  0.31138092    -0.17530
C4647       C  0.53684723  0.15160870  0.30141248     0.10790
C4648       C  0.53796761  0.13431535  0.30093169    -0.06330
C4649       C  0.52667529  0.12502034  0.30997783    -0.17570
C4650       C  0.51517386  0.13241502  0.32034347     0.10820
S4651       S  0.55144247  0.16465331  0.29106489    -0.32530
S4652       S  0.50263597  0.11871227  0.33223065    -0.32540
H4653       H  0.50085426  0.12921004  0.34554442     0.28830
H4654       H  0.54365617  0.17971100  0.29420622     0.28830
H4655       H  0.52450332  0.17223318  0.31205939     0.19420
H4656       H  0.52726575  0.11175877  0.30949701     0.19430
C4657       C  0.53866981  0.19158382  0.35978145    -0.06400
C4658       C  0.53985523  0.17454678  0.36150593    -0.17530
C4659       C  0.52874297  0.16399682  0.35399069     0.10790
C4660       C  0.51574855  0.17037498  0.34443307    -0.06330
C4661       C  0.51448580  0.18749954  0.34270538    -0.17570
C4662       C  0.52564873  0.19812872  0.35038803     0.10820
S4663       S  0.53214129  0.14241069  0.35686164    -0.32530
S4664       S  0.52245120  0.21982961  0.34787241    -0.32540
H4665       H  0.52802580  0.22412629  0.36357260     0.28830
H4666       H  0.51731393  0.14018449  0.36522343     0.28830
H4667       H  0.54983190  0.16929290  0.36850099     0.19420
H4668       H  0.50499181  0.19263007  0.33500084     0.19430
C4669       C  0.63378155  0.19042195  0.45235120    -0.06400
C4670       C  0.64513373  0.19863982  0.46237103    -0.17530
C4671       C  0.65362677  0.19043844  0.47493590     0.10790
C4672       C  0.65056517  0.17364366  0.47781695    -0.06330
C4673       C  0.63884502  0.16567408  0.46813535    -0.17570
C4674       C  0.63072631  0.17362565  0.45538389     0.10820
S4675       S  0.66911737  0.20135130  0.48619910    -0.32530
S4676       S  0.61808884  0.16092981  0.44251576    -0.32540
H4677       H  0.62418312  0.16747821  0.42779962     0.28830
H4678       H  0.66286692  0.21711265  0.48304081     0.28830
H4679       H  0.64769765  0.21145336  0.46007441     0.19420
H4680       H  0.63649377  0.15279675  0.46995764     0.19430
C4681       C  0.35769511  0.19231008  0.45493245    -0.06400
C4682       C  0.36645806  0.18261487  0.46612522    -0.17530
C4683       C  0.35846460  0.17326226  0.47808884     0.10790
C4684       C  0.34119980  0.17407433  0.47942296    -0.06330
C4685       C  0.33257764  0.18432310  0.46862786    -0.17570
C4686       C  0.34046473  0.19322024  0.45632695     0.10820
S4687       S  0.37105828  0.15973597  0.49011387    -0.32530
S4688       S  0.32795796  0.20386060  0.44146095    -0.32540
H4689       H  0.31299280  0.20269973  0.44989966     0.28830
H4690       H  0.35963777  0.14702001  0.49079880     0.28830
H4691       H  0.37965600  0.18176707  0.46509809     0.19420
H4692       H  0.31936157  0.18454167  0.46921054     0.19430
C4693       C  0.45367952  0.19107380  0.35871932    -0.06400
C4694       C  0.46550710  0.18300455  0.36825587    -0.17530
C4695       C  0.47806425  0.17367130  0.36105538     0.10790
C4696       C  0.47889474  0.17247829  0.34378428    -0.06330
C4697       C  0.46793981  0.18183793  0.33435962    -0.17570
C4698       C  0.45513058  0.19059294  0.34149657     0.10820
S4699       S  0.49180375  0.16243503  0.37420114    -0.32530
S4700       S  0.44005187  0.19898295  0.32773855    -0.32540
H4701       H  0.42657973  0.19324730  0.33680715     0.28830
H4702       H  0.48658347  0.16923719  0.38912453     0.28830
H4703       H  0.46451986  0.18355939  0.38145004     0.19420
H4704       H  0.46850184  0.18115308  0.32112556     0.19430
C4705       C  0.36088364  0.18746010  0.54144729    -0.06400
C4706       C  0.35203697  0.19664767  0.52988762    -0.17530
C4707       C  0.34269442  0.18905706  0.51765675     0.10790
C4708       C  0.34280347  0.17174236  0.51627185    -0.06330
C4709       C  0.35236941  0.16270043  0.52736720    -0.17570
C4710       C  0.36094769  0.17019547  0.54007641     0.10820
S4711       S  0.32996018  0.20222987  0.50543343    -0.32530
S4712       S  0.36992375  0.15674672  0.55509806    -0.32540
H4713       H  0.36387092  0.16559915  0.56857832     0.28830
H4714       H  0.31614464  0.19222336  0.50668801     0.28830
H4715       H  0.35176654  0.20989167  0.53086043     0.19420
H4716       H  0.35220184  0.14945215  0.52689532     0.19430
C4717       C  0.45555540  0.19408784  0.63799085    -0.06400
C4718       C  0.45586796  0.19356871  0.65515016    -0.17530
C4719       C  0.46808898  0.18493430  0.66349862     0.10790
C4720       C  0.47976478  0.17567171  0.65461959    -0.06330
C4721       C  0.48043818  0.17784054  0.63757691    -0.17570
C4722       C  0.46879302  0.18723045  0.62927498     0.10820
S4723       S  0.46823781  0.18647363  0.68547355    -0.32530
S4724       S  0.47174813  0.19005260  0.60759742    -0.32540
H4725       H  0.46482677  0.20584467  0.60715259     0.28830
H4726       H  0.48530365  0.18455232  0.68683987     0.28830
H4727       H  0.44631960  0.19951386  0.66214416     0.19420
H4728       H  0.48939282  0.17174825  0.63044396     0.19430
C4729       C  0.34281540  0.01562256  0.32028472    -0.06400
C4730       C  0.34370480  0.01389182  0.30317304    -0.17530
C4731       C  0.35284950  0.02480883  0.29357470     0.10790
C4732       C  0.36131508  0.03787411  0.30114411    -0.06330
C4733       C  0.36113370  0.03907599  0.31822155    -0.17570
C4734       C  0.35214823  0.02819537  0.32783061     0.10820
S4735       S  0.35320774  0.02135683  0.27180523    -0.32530
S4736       S  0.35315562  0.03145296  0.34964774    -0.32540
H4737       H  0.35117816  0.01500187  0.35407769     0.28830
H4738       H  0.36918739  0.02731020  0.26945256     0.28830
H4739       H  0.33667464  0.00440940  0.29713946     0.19420
H4740       H  0.36768391  0.04895218  0.32419226     0.19430
C4741       C  0.45505145  0.13274933  0.30341555    -0.06400
C4742       C  0.45379970  0.13164074  0.32045820    -0.17530
C4743       C  0.46491093  0.13945569  0.33078063     0.10790
C4744       C  0.47795493  0.14879322  0.32408743    -0.06330
C4745       C  0.47924959  0.14987972  0.30693846    -0.17570
C4746       C  0.46815417  0.14178762  0.29658780     0.10820
S4747       S  0.46107071  0.13733451  0.35238878    -0.32530
S4748       S  0.47156148  0.14331700  0.27486623    -0.32540
H4749       H  0.46594903  0.12743358  0.27124764     0.28830
H4750       H  0.47753119  0.13676782  0.35691048     0.28830
H4751       H  0.44373298  0.12491813  0.32589170     0.19420
H4752       H  0.48871706  0.15742558  0.30153615     0.19430
C4753       C  0.31853120  0.01525587  0.33973166    -0.06400
C4754       C  0.31752096  0.01303623  0.35678592    -0.17530
C4755       C  0.30813828  0.02353890  0.36661093     0.10790
C4756       C  0.29979306  0.03690094  0.35939145    -0.06330
C4757       C  0.30012362  0.03859301  0.34233729    -0.17570
C4758       C  0.30911654  0.02794505  0.33247873     0.10820
S4759       S  0.30721624  0.01905392  0.38817409    -0.32530
S4760       S  0.30797059  0.03160766  0.31073194    -0.32540
H4761       H  0.30989574  0.01521728  0.30604832     0.28830
H4762       H  0.29104862  0.02461706  0.39024479     0.28830
H4763       H  0.32457756  0.00344574  0.36262799     0.19420
H4764       H  0.29365088  0.04863535  0.33655336     0.19430
C4765       C  0.30491127  0.13303549  0.45389753    -0.06400
C4766       C  0.29595667  0.14186487  0.46563875    -0.17530
C4767       C  0.30378787  0.15112420  0.47779328     0.10790
C4768       C  0.32110796  0.15101953  0.47879793    -0.06330
C4769       C  0.32992238  0.14164822  0.46735063    -0.17570
C4770       C  0.32217011  0.13309970  0.45479439     0.10820
S4771       S  0.29088409  0.16357126  0.49058062    -0.32530
S4772       S  0.33522802  0.12415784  0.43941555    -0.32540
H4773       H  0.32571082  0.12964752  0.42615162     0.28830
H4774       H  0.30099036  0.17734686  0.48971502     0.28830
H4775       H  0.28270967  0.14204844  0.46496631     0.19420
H4776       H  0.34317190  0.14179619  0.46755994     0.19430
C4777       C  0.35752741  0.95362259  0.30080016    -0.06400
C4778       C  0.36631459  0.96515258  0.31008085    -0.17530
C4779       C  0.35832771  0.97735450  0.31916661     0.10790
C4780       C  0.34106981  0.97879101  0.31826103    -0.06330
C4781       C  0.33246376  0.96782754  0.30819407    -0.17570
C4782       C  0.34028567  0.95502614  0.30003188     0.10820
S4783       S  0.37091065  0.98967832  0.33240111    -0.32530
S4784       S  0.32714487  0.93987973  0.29081457    -0.32540
H4785       H  0.33584071  0.92644700  0.29724024     0.28830
H4786       H  0.35966864  0.99018723  0.34530643     0.28830
H4787       H  0.37952051  0.96421003  0.31086219     0.19420
H4788       H  0.31923694  0.96831915  0.30779314     0.19430
C4789       C  0.45619724  0.86048175  0.30296082    -0.06400
C4790       C  0.45780526  0.86176590  0.32000151    -0.17530
C4791       C  0.46980386  0.85295849  0.32845305     0.10790
C4792       C  0.48014633  0.84202365  0.31988291    -0.06330
C4793       C  0.47975037  0.84219177  0.30270845    -0.17570
C4794       C  0.46804910  0.85137889  0.29417734     0.10820
S4795       S  0.47120189  0.85614272  0.35021983    -0.32530
S4796       S  0.46901201  0.85090687  0.27215289    -0.32540
H4797       H  0.46328619  0.86703235  0.27002116     0.28830
H4798       H  0.48804390  0.85272372  0.35119191     0.28830
H4799       H  0.44928408  0.86920600  0.32692822     0.19420
H4800       H  0.48793131  0.83446097  0.29581951     0.19430
C4801       C  0.30497620  0.95383263  0.35960386    -0.06400
C4802       C  0.29598117  0.96487323  0.34993140    -0.17530
C4803       C  0.30375854  0.97689876  0.34045608     0.10790
C4804       C  0.32099878  0.97855935  0.34126268    -0.06330
C4805       C  0.32982477  0.96793079  0.35151629    -0.17570
C4806       C  0.32218706  0.95538173  0.36020363     0.10820
S4807       S  0.29094864  0.98879042  0.32700703    -0.32530
S4808       S  0.33544248  0.94073886  0.37008709    -0.32540
H4809       H  0.32667145  0.92695805  0.36460069     0.28830
H4810       H  0.30234161  0.98980116  0.31426148     0.28830
H4811       H  0.28278508  0.96371875  0.34925410     0.19420
H4812       H  0.34304423  0.96858468  0.35183460     0.19430
C4813       C  0.30498565  0.86036400  0.45513385    -0.06400
C4814       C  0.32213145  0.86025424  0.45420953    -0.17530
C4815       C  0.33157943  0.85104987  0.46519512     0.10790
C4816       C  0.32375655  0.84172716  0.47750372    -0.06330
C4817       C  0.30661809  0.84245300  0.47880416    -0.17570
C4818       C  0.29721778  0.85178041  0.46796261     0.10820
S4819       S  0.35362341  0.85124153  0.46327784    -0.32530
S4820       S  0.27541553  0.85232024  0.47132967    -0.32540
H4821       H  0.27331646  0.86850796  0.46578041     0.28830
H4822       H  0.35455011  0.86220488  0.45003043     0.28830
H4823       H  0.32810971  0.86692278  0.44444511     0.19420
H4824       H  0.30033971  0.83516459  0.48784693     0.19430
C4825       C  0.51608360  0.17106263  0.65176768    -0.06400
C4826       C  0.52311266  0.18416100  0.66040465    -0.17530
C4827       C  0.53658813  0.19279915  0.65424610     0.10790
C4828       C  0.54238770  0.18946425  0.63822453    -0.06330
C4829       C  0.53452573  0.17713281  0.62916909    -0.17570
C4830       C  0.52193737  0.16762150  0.63579966     0.10820
S4831       S  0.54683292  0.20619412  0.66843611    -0.32530
S4832       S  0.51458855  0.15118976  0.62295702    -0.32540
H4833       H  0.50060468  0.14717108  0.63197200     0.28830
H4834       H  0.56259350  0.20057184  0.66432146     0.28830
H4835       H  0.51893461  0.18684165  0.67268429     0.19420
H4836       H  0.53846611  0.17448844  0.61680484     0.19430
C4837       C  0.63642812  0.19374174  0.54080448    -0.06400
C4838       C  0.62719844  0.18446072  0.52965721    -0.17530
C4839       C  0.63466770  0.17556380  0.51698710     0.10790
C4840       C  0.65187494  0.17651403  0.51482312    -0.06330
C4841       C  0.66085084  0.18670805  0.52539724    -0.17570
C4842       C  0.65353544  0.19482073  0.53852145     0.10820
S4843       S  0.62141726  0.16253573  0.50510967    -0.32530
S4844       S  0.66717927  0.20440429  0.55297071    -0.32540
H4845       H  0.65918668  0.19803750  0.56683603     0.28830
H4846       H  0.63294148  0.15034045  0.50179179     0.28830
H4847       H  0.61406504  0.18353842  0.53127309     0.19420
H4848       H  0.67403652  0.18719882  0.52439347     0.19430
C4849       C  0.63578120  0.95730091  0.30206564    -0.06400
C4850       C  0.65281666  0.95827395  0.29993234    -0.17530
C4851       C  0.66217598  0.97012345  0.30794426     0.10790
C4852       C  0.65468398  0.98089158  0.31923963    -0.06330
C4853       C  0.63754219  0.98072518  0.32059562    -0.17570
C4854       C  0.62802726  0.96934284  0.31190694     0.10820
S4855       S  0.68354050  0.97128594  0.30262890    -0.32530
S4856       S  0.60614010  0.97142612  0.31342562    -0.32540
H4857       H  0.60312815  0.96695479  0.29707788     0.28830
H4858       H  0.68464899  0.98837112  0.30468802     0.28830
H4859       H  0.65906419  0.94962805  0.29206399     0.19420
H4860       H  0.63151909  0.98955264  0.32844442     0.19430
C4861       C  0.54255272  0.85747882  0.30522377    -0.06400
C4862       C  0.53629873  0.84377488  0.29683222    -0.17530
C4863       C  0.52371080  0.83410551  0.30327428     0.10790
C4864       C  0.51606737  0.83871636  0.31811139    -0.06330
C4865       C  0.52100206  0.85340727  0.32555873    -0.17570
C4866       C  0.53468863  0.86214991  0.32000983     0.10820
S4867       S  0.51870725  0.81588386  0.29187170    -0.32530
S4868       S  0.54249726  0.87742840  0.33381510    -0.32540
H4869       H  0.55871697  0.87168252  0.33281389     0.28830
H4870       H  0.50405104  0.81238275  0.29981012     0.28830
H4871       H  0.54157185  0.84006887  0.28527732     0.19420
H4872       H  0.51511643  0.85731728  0.33675273     0.19430
C4873       C  0.30391342  0.85963923  0.53759733    -0.06400
C4874       C  0.31828560  0.86691547  0.53152667    -0.17530
C4875       C  0.32760939  0.85945926  0.51922629     0.10790
C4876       C  0.32335521  0.84365061  0.51360131    -0.06330
C4877       C  0.30850269  0.83685401  0.51895340    -0.17570
C4878       C  0.29837473  0.84501235  0.53006894     0.10820
S4879       S  0.34429414  0.87117523  0.51104479    -0.32530
S4880       S  0.27826128  0.83648481  0.53309154    -0.32540
H4881       H  0.27053393  0.85180165  0.53487539     0.28830
H4882       H  0.34261527  0.86495779  0.49516709     0.28830
H4883       H  0.32249548  0.87847980  0.53643281     0.19420
H4884       H  0.30461750  0.82506835  0.51427469     0.19430
C4885       C  0.30243254  0.95470979  0.63375045    -0.06400
C4886       C  0.31685493  0.96126753  0.62698899    -0.17530
C4887       C  0.32572488  0.97350256  0.63507793     0.10790
C4888       C  0.32081533  0.97862446  0.65081911    -0.06330
C4889       C  0.30603979  0.97272805  0.65718809    -0.17570
C4890       C  0.29636295  0.96167558  0.64845129     0.10820
S4891       S  0.34323350  0.98194761  0.62481016    -0.32530
S4892       S  0.27611486  0.95797611  0.65637797    -0.32540
H4893       H  0.26884299  0.95621217  0.64087094     0.28830
H4894       H  0.33709864  0.99796822  0.62572850     0.28830
H4895       H  0.32152527  0.95667366  0.61548162     0.19420
H4896       H  0.30188519  0.97695827  0.66904541     0.19430
C4897       C  0.69263484  0.54119646  0.85947664    -0.06400
C4898       C  0.70185646  0.52948352  0.85087033    -0.17530
C4899       C  0.69428287  0.51706893  0.84164460     0.10790
C4900       C  0.67698791  0.51628858  0.84109749    -0.06330
C4901       C  0.66789064  0.52737711  0.85060498    -0.17570
C4902       C  0.67538875  0.53998515  0.85935094     0.10820
S4903       S  0.70691637  0.50312040  0.83006110    -0.32530
S4904       S  0.66205712  0.55506846  0.86842428    -0.32540
H4905       H  0.67133438  0.56858405  0.86310916     0.28830
H4906       H  0.72216109  0.50879448  0.83568072     0.28830
H4907       H  0.71507492  0.53035321  0.85107885     0.19420
H4908       H  0.65463592  0.52691413  0.85029135     0.19430
C4909       C  0.67213102  0.65056422  0.97762678    -0.06400
C4910       C  0.68921924  0.65250691  0.97826510    -0.17530
C4911       C  0.69950751  0.64455285  0.96702983     0.10790
C4912       C  0.69259348  0.63478278  0.95450331    -0.06330
C4913       C  0.67557224  0.63277057  0.95401766    -0.17570
C4914       C  0.66536569  0.64040728  0.96534181     0.10820
S4915       S  0.72125119  0.64717246  0.96956168    -0.32530
S4916       S  0.64374677  0.63667001  0.96325295    -0.32540
H4917       H  0.64071471  0.63633291  0.98013176     0.28830
H4918       H  0.72537636  0.63124078  0.96443991     0.28830
H4919       H  0.69455957  0.66054760  0.98735505     0.19420
H4920       H  0.67004755  0.62539668  0.94448034     0.19430
C4921       C  0.51865380  0.67823845  0.15769850    -0.06400
C4922       C  0.51765854  0.67667714  0.14058041    -0.17530
C4923       C  0.52906752  0.68438448  0.13019613     0.10790
C4924       C  0.54212034  0.69346470  0.13707876    -0.06330
C4925       C  0.54299596  0.69502857  0.15413231    -0.17570
C4926       C  0.53151793  0.68771386  0.16438181     0.10820
S4927       S  0.52647889  0.68285250  0.10831146    -0.32530
S4928       S  0.53425489  0.69077450  0.18599965    -0.32540
H4929       H  0.51900181  0.69844765  0.18785599     0.28830
H4930       H  0.51189627  0.67369548  0.10853651     0.28830
H4931       H  0.50824616  0.66896202  0.13537233     0.19420
H4932       H  0.55293964  0.70181878  0.15967713     0.19430
C4933       C  0.65099510  0.67075871  0.01540591    -0.06400
C4934       C  0.65285700  0.68789018  0.01531648    -0.17530
C4935       C  0.64512546  0.69776980  0.02709794     0.10790
C4936       C  0.63572518  0.69037628  0.03966922    -0.06330
C4937       C  0.63367218  0.67332525  0.03947845    -0.17570
C4938       C  0.64098674  0.66356090  0.02756547     0.10820
S4939       S  0.64752387  0.71962461  0.02514662    -0.32530
S4940       S  0.63709231  0.64188045  0.02878712    -0.32540
H4941       H  0.63640728  0.63964653  0.01179138     0.28830
H4942       H  0.63163652  0.72340887  0.03060471     0.28830
H4943       H  0.66071045  0.69357564  0.00627013     0.19420
H4944       H  0.62654111  0.66738457  0.04894891     0.19430
C4945       C  0.69388778  0.53962688  0.13385091    -0.06400
C4946       C  0.69363593  0.54097341  0.15093005    -0.17530
C4947       C  0.68490209  0.52998693  0.16064291     0.10790
C4948       C  0.67570902  0.51724099  0.15321477    -0.06330
C4949       C  0.67660575  0.51541946  0.13610381    -0.17570
C4950       C  0.68568986  0.52631501  0.12641576     0.10820
S4951       S  0.68607936  0.53333856  0.18243468    -0.32530
S4952       S  0.68643168  0.52240889  0.10473811    -0.32540
H4953       H  0.70248346  0.52825738  0.10260969     0.28830
H4954       H  0.68460236  0.51683663  0.18686702     0.28830
H4955       H  0.69999362  0.55099928  0.15685316     0.19420
H4956       H  0.66966456  0.50583903  0.13012726     0.19430
C4957       C  0.67458892  0.65104828  0.01399048    -0.06400
C4958       C  0.68477098  0.66040623  0.02419624    -0.17530
C4959       C  0.69456192  0.65316783  0.03623901     0.10790
C4960       C  0.69460402  0.63590523  0.03790960    -0.06330
C4961       C  0.68555747  0.62645622  0.02674832    -0.17570
C4962       C  0.67557234  0.63375109  0.01481130     0.10820
S4963       S  0.70509414  0.66648467  0.05042261    -0.32530
S4964       S  0.66344917  0.62067798  0.00178817    -0.32540
H4965       H  0.67034029  0.60564733  0.00664976     0.28830
H4966       H  0.70368561  0.68099149  0.04121176     0.28830
H4967       H  0.68417216  0.67364126  0.02342877     0.19420
H4968       H  0.68586314  0.61323723  0.02781042     0.19430
C4969       C  0.34137019  0.67626521  0.01526930    -0.06400
C4970       C  0.35152614  0.66629391  0.02500501    -0.17530
C4971       C  0.36126666  0.67278839  0.03745320     0.10790
C4972       C  0.36166315  0.68990442  0.03989372    -0.06330
C4973       C  0.35252454  0.70000272  0.02944927    -0.17570
C4974       C  0.34217223  0.69352633  0.01746958     0.10820
S4975       S  0.37129715  0.65835359  0.05079559    -0.32530
S4976       S  0.32979900  0.70840028  0.00685566    -0.32540
H4977       H  0.31772248  0.69760116  0.00152827     0.28830
H4978       H  0.36660540  0.66639817  0.06528054     0.28830
H4979       H  0.35095909  0.65309283  0.02374458     0.19420
H4980       H  0.35285605  0.71317452  0.03116404     0.19430
C4981       C  0.45776919  0.69108687  0.13448930    -0.06400
C4982       C  0.46884934  0.70089312  0.14324580    -0.17530
C4983       C  0.48093380  0.69394760  0.15331981     0.10790
C4984       C  0.48205102  0.67667395  0.15453769    -0.06330
C4985       C  0.47187330  0.66699135  0.14460406    -0.17570
C4986       C  0.45950873  0.67387838  0.13507447     0.10820
S4987       S  0.49366796  0.70737350  0.16537366    -0.32530
S4988       S  0.44526832  0.65984028  0.12575374    -0.32540
H4989       H  0.43127776  0.66856192  0.13076848     0.28830
H4990       H  0.48842368  0.72224449  0.15841753     0.28830
H4991       H  0.46758493  0.71408811  0.14265010     0.19420
H4992       H  0.47270116  0.65374850  0.14530968     0.19430
C4993       C  0.36018361  0.69104561  0.95373321    -0.06400
C4994       C  0.36511316  0.67582668  0.96016297    -0.17530
C4995       C  0.35635408  0.66819156  0.97283914     0.10790
C4996       C  0.34165471  0.67539083  0.97861941    -0.06330
C4997       C  0.33706073  0.69066538  0.97229508    -0.17570
C4998       C  0.34675407  0.69908696  0.96110841     0.10820
S4999       S  0.36438233  0.64902351  0.98032924    -0.32530
S5000       S  0.34171017  0.72035224  0.95779750    -0.32540
H5001       H  0.35804405  0.72532370  0.95550098     0.28830
H5002       H  0.35585622  0.64891397  0.99517102     0.28830
H5003       H  0.37562340  0.66956868  0.95505250     0.19420
H5004       H  0.32570509  0.69625375  0.97589879     0.19430
C5005       C  0.45920195  0.69277093  0.86031812    -0.06400
C5006       C  0.45950844  0.69345867  0.84315400    -0.17530
C5007       C  0.47083975  0.68439724  0.83413380     0.10790
C5008       C  0.48172962  0.67370476  0.84228250    -0.06330
C5009       C  0.48243769  0.67415241  0.85944068    -0.17570
C5010       C  0.47153100  0.68375809  0.86850570     0.10820
S5011       S  0.47078178  0.68706081  0.81224115    -0.32530
S5012       S  0.47423755  0.68408027  0.89037951    -0.32540
H5013       H  0.46902195  0.70040298  0.89230753     0.28830
H5014       H  0.48767350  0.68429546  0.81034593     0.28830
H5015       H  0.45055986  0.70072116  0.83659432     0.19420
H5016       H  0.49106047  0.66649448  0.86591608     0.19430
C5017       C  0.31731384  0.65691221  0.01537978    -0.06400
C5018       C  0.32007142  0.63990914  0.01561959    -0.17530
C5019       C  0.31139339  0.62946964  0.02605097     0.10790
C5020       C  0.30061564  0.63618428  0.03780183    -0.06330
C5021       C  0.29781096  0.65316360  0.03760890    -0.17570
C5022       C  0.30585280  0.66352622  0.02656139     0.10820
S5023       S  0.31439706  0.60777481  0.02325196    -0.32530
S5024       S  0.30177475  0.68519981  0.02772992    -0.32540
H5025       H  0.28823105  0.68441986  0.03832654     0.28830
H5026       H  0.29809994  0.60357978  0.02691211     0.28830
H5027       H  0.32955049  0.63467043  0.00809220     0.19420
H5028       H  0.28978306  0.65852969  0.04665466     0.19430
C5029       C  0.67157990  0.34586093  0.01603707    -0.06400
C5030       C  0.68800545  0.34114361  0.01797557    -0.17530
C5031       C  0.69836494  0.34922701  0.02901284     0.10790
C5032       C  0.69207437  0.36201342  0.03893325    -0.06330
C5033       C  0.67584969  0.36709239  0.03646027    -0.17570
C5034       C  0.66571688  0.35940835  0.02506912     0.10820
S5035       S  0.71947150  0.34285041  0.02937990    -0.32530
S5036       S  0.64542271  0.36759965  0.02284969    -0.32540
H5037       H  0.64518408  0.36610841  0.00577625     0.28830
H5038       H  0.72571415  0.35867062  0.03216253     0.28830
H5039       H  0.69273714  0.33089311  0.01101582     0.19420
H5040       H  0.67077152  0.37695131  0.04373338     0.19430
C5041       C  0.69128848  0.45645891  0.13282510    -0.06400
C5042       C  0.69971755  0.46747945  0.14300199    -0.17530
C5043       C  0.69138242  0.47917322  0.15243774     0.10790
C5044       C  0.67414088  0.48051124  0.15114383    -0.06330
C5045       C  0.66587812  0.46992320  0.14040693    -0.17570
C5046       C  0.67407241  0.45772856  0.13167807     0.10820
S5047       S  0.70348907  0.49103892  0.16651685    -0.32530
S5048       S  0.66147311  0.44312449  0.12096412    -0.32540
H5049       H  0.67024530  0.42935674  0.12651635     0.28830
H5050       H  0.69180308  0.49117392  0.17904387     0.28830
H5051       H  0.71290286  0.46654577  0.14411501     0.19420
H5052       H  0.65266221  0.47033330  0.13968566     0.19430
C5053       C  0.65028869  0.32375508  0.01631180    -0.06400
C5054       C  0.65899557  0.31173330  0.02495411    -0.17530
C5055       C  0.65129758  0.30100479  0.03576753     0.10790
C5056       C  0.63478659  0.30381251  0.04036277    -0.06330
C5057       C  0.62593318  0.31569346  0.03143210    -0.17570
C5058       C  0.63324467  0.32518362  0.01908601     0.10820
S5059       S  0.66301545  0.28317199  0.04136583    -0.32530
S5060       S  0.61981670  0.33867447  0.00784655    -0.32540
H5061       H  0.63104378  0.34412214  0.99622175     0.28830
H5062       H  0.64956940  0.27245636  0.04017224     0.28830
H5063       H  0.67192123  0.31003389  0.02246405     0.19420
H5064       H  0.61312735  0.31777909  0.03398846     0.19430
C5065       C  0.69321079  0.36015464  0.95660984    -0.06400
C5066       C  0.69493778  0.34309439  0.95795181    -0.17530
C5067       C  0.68662760  0.33423676  0.96997196     0.10790
C5068       C  0.67560168  0.34232705  0.98057124    -0.06330
C5069       C  0.67474959  0.35951155  0.97998152    -0.17570
C5070       C  0.68379602  0.36850251  0.96852861     0.10820
S5071       S  0.69051707  0.31257301  0.97100280    -0.32530
S5072       S  0.68305223  0.39050964  0.97015428    -0.32540
H5073       H  0.69930383  0.39292351  0.96498928     0.28830
H5074       H  0.68896399  0.31184031  0.98811450     0.28830
H5075       H  0.70247294  0.33644594  0.94930277     0.19420
H5076       H  0.66660394  0.36600407  0.98811223     0.19430
C5077       C  0.69343025  0.45627442  0.86030817    -0.06400
C5078       C  0.69433704  0.45527714  0.84322519    -0.17530
C5079       C  0.68645643  0.46660410  0.83321863     0.10790
C5080       C  0.67701088  0.47931620  0.84028878    -0.06330
C5081       C  0.67666170  0.48080399  0.85742375    -0.17570
C5082       C  0.68481455  0.46949332  0.86748261     0.10820
S5083       S  0.68925370  0.46407809  0.81148079    -0.32530
S5084       S  0.68387174  0.47275108  0.88925763    -0.32540
H5085       H  0.69967187  0.46670327  0.89246863     0.28830
H5086       H  0.68876600  0.48086407  0.80784908     0.28830
H5087       H  0.70101989  0.44533600  0.83750565     0.19420
H5088       H  0.66959720  0.49053152  0.86303268     0.19430
C5089       C  0.54178210  0.63485796  0.80237604    -0.06400
C5090       C  0.53138042  0.62559392  0.81251273    -0.17530
C5091       C  0.51915801  0.63309550  0.82203444     0.10790
C5092       C  0.51720516  0.65027139  0.82127336    -0.06330
C5093       C  0.52663164  0.65921801  0.81002966    -0.17570
C5094       C  0.53919317  0.65194094  0.80111358     0.10820
S5095       S  0.50656433  0.62064206  0.83523083    -0.32530
S5096       S  0.55251394  0.66567226  0.79010071    -0.32540
H5097       H  0.56700121  0.65830775  0.79582762     0.28830
H5098       H  0.51312217  0.60536366  0.83069707     0.28830
H5099       H  0.53311854  0.61246269  0.81324678     0.19420
H5100       H  0.52495043  0.67231326  0.80891260     0.19430
C5101       C  0.63793855  0.53970204  0.80082590    -0.06400
C5102       C  0.65485873  0.53861237  0.79811468    -0.17530
C5103       C  0.66440183  0.52690497  0.80606428     0.10790
C5104       C  0.65717228  0.51623468  0.81757746    -0.06330
C5105       C  0.64014616  0.51683657  0.81987472    -0.17570
C5106       C  0.63042432  0.52808807  0.81129889     0.10820
S5107       S  0.68581453  0.52634243  0.80104838    -0.32530
S5108       S  0.60859192  0.52655403  0.81394907    -0.32540
H5109       H  0.60481033  0.53098337  0.79774623     0.28830
H5110       H  0.68658405  0.50915782  0.80132410     0.28830
H5111       H  0.66087843  0.54719292  0.78999188     0.19420
H5112       H  0.63441588  0.50869917  0.82863590     0.19430
C5113       C  0.36052414  0.53720734  0.79954275    -0.06400
C5114       C  0.34345052  0.53823363  0.79788749    -0.17530
C5115       C  0.33300168  0.52743891  0.80610588     0.10790
C5116       C  0.33965658  0.51526169  0.81645085    -0.06330
C5117       C  0.35675381  0.51390886  0.81779367    -0.17570
C5118       C  0.36721306  0.52443931  0.80918246     0.10820
S5119       S  0.31114787  0.52951844  0.80336824    -0.32530
S5120       S  0.38886542  0.52057031  0.81072182    -0.32540
H5121       H  0.39238298  0.52519877  0.79451660     0.28830
H5122       H  0.31152709  0.54232984  0.79185966     0.28830
H5123       H  0.33819050  0.54793057  0.79055141     0.19420
H5124       H  0.36201105  0.50480123  0.82588308     0.19430
C5125       C  0.45836123  0.63082245  0.80384683    -0.06400
C5126       C  0.45684053  0.63117544  0.82089258    -0.17530
C5127       C  0.46768190  0.64005109  0.83060561     0.10790
C5128       C  0.48050781  0.64914168  0.82324479    -0.06330
C5129       C  0.48233592  0.64838489  0.80614152    -0.17570
C5130       C  0.47155902  0.63922335  0.79642514     0.10820
S5131       S  0.46419824  0.63914960  0.85234184    -0.32530
S5132       S  0.47548281  0.63862998  0.77473684    -0.32540
H5133       H  0.46974344  0.62253589  0.77250604     0.28830
H5134       H  0.48082616  0.63859885  0.85634068     0.28830
H5135       H  0.44681238  0.62477513  0.82676485     0.19420
H5136       H  0.49191663  0.65535978  0.80021261     0.19430
C5137       C  0.45676698  0.36298127  0.80005894    -0.06400
C5138       C  0.45508466  0.36328251  0.81709163    -0.17530
C5139       C  0.46554708  0.35438989  0.82721444     0.10790
C5140       C  0.47819596  0.34472311  0.82025017    -0.06330
C5141       C  0.48047562  0.34519390  0.80319110    -0.17570
C5142       C  0.46991475  0.35417551  0.79305864     0.10820
S5143       S  0.46168185  0.35593773  0.84889404    -0.32530
S5144       S  0.47380552  0.35378295  0.77136178    -0.32540
H5145       H  0.46780702  0.36964604  0.76827879     0.28830
H5146       H  0.47798054  0.35389930  0.85375808     0.28830
H5147       H  0.44512504  0.37010162  0.82261444     0.19420
H5148       H  0.49005469  0.33790308  0.79762440     0.19430
C5149       C  0.36009743  0.45457261  0.80203848    -0.06400
C5150       C  0.35011969  0.46535651  0.79309311    -0.17530
C5151       C  0.34054553  0.47728499  0.80087465     0.10790
C5152       C  0.34135825  0.47896518  0.81811218    -0.06330
C5153       C  0.35213421  0.46880056  0.82687073    -0.17570
C5154       C  0.36109956  0.45644026  0.81919635     0.10820
S5155       S  0.32710523  0.48909491  0.78800221    -0.32530
S5156       S  0.37197915  0.44244804  0.83235465    -0.32540
H5157       H  0.36666656  0.42829504  0.82408583     0.28830
H5158       H  0.31412526  0.48947303  0.79908387     0.28830
H5159       H  0.34929488  0.46406904  0.77992124     0.19420
H5160       H  0.35268792  0.46970659  0.84007844     0.19430
C5161       C  0.54017041  0.35947420  0.80288391    -0.06400
C5162       C  0.52856640  0.36798077  0.81233526    -0.17530
C5163       C  0.51643858  0.35969231  0.82128090     0.10790
C5164       C  0.51515924  0.34239160  0.82013815    -0.06330
C5165       C  0.52635851  0.33410791  0.81004946    -0.17570
C5166       C  0.53909126  0.34219817  0.80206518     0.10820
S5167       S  0.50383110  0.37200727  0.83446788    -0.32530
S5168       S  0.55445496  0.32933154  0.79278446    -0.32540
H5169       H  0.56771966  0.33846472  0.79889267     0.28830
H5170       H  0.50432393  0.36093768  0.84750901     0.28830
H5171       H  0.52927090  0.38121239  0.81321124     0.19420
H5172       H  0.52589819  0.32095213  0.80906606     0.19430
C5173       C  0.63396380  0.45784537  0.80284811    -0.06400
C5174       C  0.63244778  0.45922821  0.81988926    -0.17530
C5175       C  0.64163820  0.47061599  0.82871270     0.10790
C5176       C  0.65323415  0.48052786  0.82054272    -0.06330
C5177       C  0.65366276  0.48026960  0.80337258    -0.17570
C5178       C  0.64402533  0.46922995  0.79445191     0.10820
S5179       S  0.63787343  0.47195195  0.85039568    -0.32530
S5180       S  0.64499596  0.47057570  0.77247058    -0.32540
H5181       H  0.62859851  0.46597310  0.76994396     0.28830
H5182       H  0.64140763  0.48878118  0.85154937     0.28830
H5183       H  0.62439966  0.45105242  0.82653899     0.19420
H5184       H  0.66198602  0.48829583  0.79688147     0.19430
C5185       C  0.63807459  0.69263426  0.95313226    -0.06400
C5186       C  0.62823753  0.68406818  0.96433190    -0.17530
C5187       C  0.63513171  0.67482131  0.97711055     0.10790
C5188       C  0.65237628  0.67411511  0.97869727    -0.06330
C5189       C  0.66200586  0.68403447  0.96844562    -0.17570
C5190       C  0.65519734  0.69282792  0.95549061     0.10820
S5191       S  0.62170223  0.66327850  0.99029878    -0.32530
S5192       S  0.66933163  0.70219653  0.94137104    -0.32540
H5193       H  0.66127022  0.69642247  0.92729766     0.28830
H5194       H  0.60682783  0.66954821  0.98430565     0.28830
H5195       H  0.61509271  0.68418985  0.96267452     0.19420
H5196       H  0.67521656  0.68376644  0.96964256     0.19430
C5197       C  0.54313615  0.69032722  0.85755895    -0.06400
C5198       C  0.53845064  0.67518721  0.86438925    -0.17530
C5199       C  0.52632467  0.66543263  0.85737826     0.10790
C5200       C  0.51748060  0.67123020  0.84373941    -0.06330
C5201       C  0.52086932  0.68698346  0.83780899    -0.17570
C5202       C  0.53411839  0.69610707  0.84379639     0.10820
S5203       S  0.52351185  0.64537202  0.86612871    -0.32530
S5204       S  0.53983718  0.71352648  0.83159702    -0.32540
H5205       H  0.55631698  0.70860536  0.83043819     0.28830
H5206       H  0.50718843  0.64371843  0.86145953     0.28830
H5207       H  0.54457510  0.67039943  0.87507513     0.19420
H5208       H  0.51423748  0.69146532  0.82722975     0.19430
C5209       C  0.51503371  0.32255393  0.15053936    -0.06400
C5210       C  0.52663083  0.33049442  0.14063884    -0.17530
C5211       C  0.53865253  0.32182652  0.13219876     0.10790
C5212       C  0.53884769  0.30453491  0.13293709    -0.06330
C5213       C  0.52721320  0.29648178  0.14273347    -0.17570
C5214       C  0.51559310  0.30525134  0.15186066     0.10820
S5215       S  0.55429577  0.33379834  0.12224419    -0.32530
S5216       S  0.50289230  0.29353519  0.16564148    -0.32540
H5217       H  0.49934927  0.30615420  0.17674970     0.28830
H5218       H  0.56731173  0.32386189  0.12762184     0.28830
H5219       H  0.52685471  0.34375822  0.14013497     0.19420
H5220       H  0.52751863  0.28323610  0.14369579     0.19430
C5221       C  0.32094915  0.51431218  0.15203162    -0.06400
C5222       C  0.33015175  0.52384204  0.14106895    -0.17530
C5223       C  0.32310414  0.53659069  0.13213379     0.10790
C5224       C  0.30603892  0.53933772  0.13314293    -0.06330
C5225       C  0.29660342  0.52900952  0.14319323    -0.17570
C5226       C  0.30385912  0.51691524  0.15296749     0.10820
S5227       S  0.33705731  0.54999562  0.12154015    -0.32530
S5228       S  0.29072090  0.50633281  0.16713707    -0.32540
H5229       H  0.30193326  0.50648318  0.18010968     0.28830
H5230       H  0.32982225  0.56445129  0.12753993     0.28830
H5231       H  0.34330104  0.52225465  0.14049177     0.19420
H5232       H  0.28350891  0.53091624  0.14409704     0.19430
C5233       C  0.36013036  0.53878673  0.19105211    -0.06400
C5234       C  0.36786957  0.52669783  0.18153912    -0.17530
C5235       C  0.35882688  0.51483019  0.17298631     0.10790
C5236       C  0.34155721  0.51457396  0.17451094    -0.06330
C5237       C  0.33393731  0.52665279  0.18409226    -0.17570
C5238       C  0.34285918  0.53879692  0.19215756     0.10820
S5239       S  0.37017383  0.50139181  0.15960595    -0.32530
S5240       S  0.33168191  0.55517061  0.20208614    -0.32540
H5241       H  0.31606154  0.54795696  0.20138975     0.28830
H5242       H  0.35737185  0.49748106  0.14886203     0.28830
H5243       H  0.38108182  0.52678651  0.18037952     0.19420
H5244       H  0.32072589  0.52704719  0.18459208     0.19430
C5245       C  0.45796321  0.63511143  0.19265110    -0.06400
C5246       C  0.45614270  0.65213699  0.19389419    -0.17530
C5247       C  0.46729272  0.66290053  0.18678398     0.10790
C5248       C  0.48087661  0.65669545  0.17792729    -0.06330
C5249       C  0.48273184  0.63957633  0.17666232    -0.17570
C5250       C  0.47164966  0.62877407  0.18416089     0.10820
S5251       S  0.46281248  0.68440922  0.18910350    -0.32530
S5252       S  0.47584013  0.60715485  0.18264257    -0.32540
H5253       H  0.46982385  0.60325283  0.19828959     0.28830
H5254       H  0.47911639  0.68933336  0.19040321     0.28830
H5255       H  0.44564030  0.65721990  0.20021252     0.19420
H5256       H  0.49264067  0.63454595  0.16943675     0.19430
C5257       C  0.45536086  0.36083726  0.19165907    -0.06400
C5258       C  0.45524472  0.36348480  0.17470180    -0.17530
C5259       C  0.46645123  0.35570223  0.16438076     0.10790
C5260       C  0.47829692  0.34501807  0.17107380    -0.06330
C5261       C  0.47886303  0.34279274  0.18811808    -0.17570
C5262       C  0.46759081  0.35064870  0.19849594     0.10820
S5263       S  0.46529004  0.35936837  0.14260371    -0.32530
S5264       S  0.46922088  0.34781320  0.22035139    -0.32540
H5265       H  0.48298084  0.33744206  0.22012482     0.28830
H5266       H  0.45249923  0.37090455  0.14294248     0.28830
H5267       H  0.44591136  0.37125702  0.16940729     0.19420
H5268       H  0.48772061  0.33433571  0.19319454     0.19430
C5269       C  0.35949920  0.45330884  0.19152481    -0.06400
C5270       C  0.35136360  0.46558300  0.20043270    -0.17530
C5271       C  0.34198621  0.47770446  0.19255650     0.10790
C5272       C  0.34086978  0.47760747  0.17526919    -0.06330
C5273       C  0.34965162  0.46570563  0.16645653    -0.17570
C5274       C  0.35856062  0.45344561  0.17428816     0.10820
S5275       S  0.33056156  0.49210193  0.20485695    -0.32530
S5276       S  0.36689389  0.43747532  0.16151767    -0.32540
H5277       H  0.36209008  0.42460498  0.17192261     0.28830
H5278       H  0.33670947  0.48720063  0.22016765     0.28830
H5279       H  0.35205526  0.46537863  0.21365760     0.19420
H5280       H  0.34879358  0.46540926  0.15322384     0.19430
C5281       C  0.53971819  0.35906868  0.19138168    -0.06400
C5282       C  0.52866432  0.36814107  0.18180950    -0.17530
C5283       C  0.51649631  0.36046473  0.17244921     0.10790
C5284       C  0.51471528  0.34320170  0.17313492    -0.06330
C5285       C  0.52507157  0.33431653  0.18362417    -0.17570
C5286       C  0.53775148  0.34185593  0.19226358     0.10820
S5287       S  0.50460732  0.37346637  0.15924328    -0.32530
S5288       S  0.55199810  0.32839931  0.20242350    -0.32540
H5289       H  0.56597461  0.33657648  0.19655040     0.28830
H5290       H  0.50560578  0.36302609  0.14574713     0.28830
H5291       H  0.52993741  0.38133992  0.18106601     0.19420
H5292       H  0.52412432  0.32108285  0.18408428     0.19430
C5293       C  0.65331654  0.48001296  0.17355728    -0.06400
C5294       C  0.66167895  0.46901113  0.18379645    -0.17530
C5295       C  0.65360371  0.45640888  0.19202284     0.10790
C5296       C  0.63637142  0.45511686  0.19094547    -0.06330
C5297       C  0.62783674  0.46650575  0.18125099    -0.17570
C5298       C  0.63607750  0.47863275  0.17226964     0.10820
S5299       S  0.66641263  0.44141764  0.20197493    -0.32530
S5300       S  0.62386712  0.49106406  0.15876661    -0.32540
H5301       H  0.63546773  0.49165551  0.14617133     0.28830
H5302       H  0.65754127  0.42786452  0.19610111     0.28830
H5303       H  0.67489500  0.46944494  0.18447864     0.19420
H5304       H  0.61464623  0.46560329  0.18020914     0.19430
C5305       C  0.63374494  0.53851075  0.19324161    -0.06400
C5306       C  0.63360675  0.54032014  0.17621877    -0.17530
C5307       C  0.64232936  0.52972060  0.16607166     0.10790
C5308       C  0.65166697  0.51678544  0.17299954    -0.06330
C5309       C  0.65104934  0.51442545  0.19005962    -0.17570
C5310       C  0.64226751  0.52518985  0.20024033     0.10820
S5311       S  0.64100418  0.53380465  0.14440769    -0.32530
S5312       S  0.64192082  0.52174054  0.22206140    -0.32540
H5313       H  0.65131602  0.50728541  0.22203925     0.28830
H5314       H  0.64297491  0.51753742  0.13934773     0.28830
H5315       H  0.62696790  0.55042572  0.17072520     0.19420
H5316       H  0.65821143  0.50469313  0.19549874     0.19430
C5317       C  0.54078121  0.63464797  0.19354630    -0.06400
C5318       C  0.52927295  0.64347564  0.20277544    -0.17530
C5319       C  0.51776703  0.65379510  0.19530912     0.10790
C5320       C  0.51749335  0.65511334  0.17799609    -0.06330
C5321       C  0.52822250  0.64522470  0.16884215    -0.17570
C5322       C  0.54008192  0.63547947  0.17631433     0.10820
S5323       S  0.50472765  0.66531967  0.20886041    -0.32530
S5324       S  0.55495974  0.62599508  0.16306401    -0.32540
H5325       H  0.56850084  0.63056023  0.17266802     0.28830
H5326       H  0.50261882  0.67861746  0.19838624     0.28830
H5327       H  0.52965429  0.64279543  0.21601518     0.19420
H5328       H  0.52809379  0.64594569  0.15559993     0.19430
C5329       C  0.30144336  0.35838067  0.03787794    -0.06400
C5330       C  0.31260440  0.36761623  0.02840880    -0.17530
C5331       C  0.32232722  0.36034321  0.01620815     0.10790
C5332       C  0.32162647  0.34324670  0.01398736    -0.06330
C5333       C  0.30943848  0.33435389  0.02206754    -0.17570
C5334       C  0.29885724  0.34177152  0.03322857     0.10820
S5335       S  0.33554710  0.37299973  0.00384222    -0.32530
S5336       S  0.28201240  0.32923863  0.03977212    -0.32540
H5337       H  0.27041202  0.34161473  0.03659610     0.28830
H5338       H  0.32915749  0.38819541  0.00887611     0.28830
H5339       H  0.31400422  0.38057559  0.03063919     0.19420
H5340       H  0.30802904  0.32140249  0.01946014     0.19430
C5341       C  0.30084958  0.45513727  0.13478510    -0.06400
C5342       C  0.29948971  0.45435833  0.15186561    -0.17530
C5343       C  0.30744777  0.46552184  0.16200682     0.10790
C5344       C  0.31750434  0.47789087  0.15513956    -0.06330
C5345       C  0.31866854  0.47889028  0.13798530    -0.17570
C5346       C  0.31017187  0.46797300  0.12778802     0.10820
S5347       S  0.30457313  0.46268472  0.18367096    -0.32530
S5348       S  0.31154785  0.47135559  0.10605813    -0.32540
H5349       H  0.29541712  0.46634526  0.10272780     0.28830
H5350       H  0.30401572  0.47943044  0.18718507     0.28830
H5351       H  0.29248332  0.44462833  0.15753628     0.19420
H5352       H  0.32662500  0.48793317  0.13244457     0.19430
C5353       C  0.35980846  0.30294426  0.03882403    -0.06400
C5354       C  0.36434702  0.31936494  0.03653478    -0.17530
C5355       C  0.35703358  0.32911118  0.02459396     0.10790
C5356       C  0.34440212  0.32266297  0.01473739    -0.06330
C5357       C  0.34018689  0.30606963  0.01650473    -0.17570
C5358       C  0.34793393  0.29608195  0.02817256     0.10820
S5359       S  0.36437458  0.34978647  0.02281038    -0.32530
S5360       S  0.34233469  0.27473728  0.02843001    -0.32540
H5361       H  0.35816549  0.26909687  0.03220126     0.28830
H5362       H  0.36296779  0.35018039  0.00573983     0.28830
H5363       H  0.37345415  0.32492337  0.04438760     0.19420
H5364       H  0.33057941  0.30094415  0.00894099     0.19430
C5365       C  0.45365329  0.30244185  0.13507749    -0.06400
C5366       C  0.46595985  0.31024138  0.12594146    -0.17530
C5367       C  0.47787925  0.32013064  0.13339385     0.10790
C5368       C  0.47797729  0.32185446  0.15069902    -0.06330
C5369       C  0.46619680  0.31314461  0.15977928    -0.17570
C5370       C  0.45384985  0.30405512  0.15228835     0.10820
S5371       S  0.49152211  0.33072361  0.11968370    -0.32530
S5372       S  0.43782989  0.29655843  0.16547662    -0.32540
H5373       H  0.42505442  0.30163134  0.15509522     0.28830
H5374       H  0.49452670  0.34403681  0.12992113     0.28830
H5375       H  0.46594958  0.30909070  0.11273209     0.19420
H5376       H  0.46598620  0.31424373  0.17298998     0.19430
C5377       C  0.30421434  0.36144036  0.95452524    -0.06400
C5378       C  0.32132384  0.36144848  0.95343698    -0.17530
C5379       C  0.33098328  0.35304375  0.96472524     0.10790
C5380       C  0.32351746  0.34394386  0.97746220    -0.06330
C5381       C  0.30636981  0.34448646  0.97897090    -0.17570
C5382       C  0.29670051  0.35327893  0.96782545     0.10820
S5383       S  0.35281187  0.35452037  0.96197867    -0.32530
S5384       S  0.27495531  0.35377367  0.97146155    -0.32540
H5385       H  0.27268869  0.36975134  0.96539697     0.28830
H5386       H  0.35637991  0.35442072  0.97873680     0.28830
H5387       H  0.32731010  0.36777316  0.94343191     0.19420
H5388       H  0.30037189  0.33759092  0.98855896     0.19430
C5389       C  0.30186403  0.45346006  0.85586913    -0.06400
C5390       C  0.31130996  0.46517049  0.86426122    -0.17530
C5391       C  0.32015214  0.47730517  0.85587405     0.10790
C5392       C  0.31875825  0.47844298  0.83863792    -0.06330
C5393       C  0.30898374  0.46696420  0.83038510    -0.17570
C5394       C  0.30104809  0.45430190  0.83860594     0.10820
S5395       S  0.33370254  0.48989199  0.86795278    -0.32530
S5396       S  0.29191072  0.43868103  0.82597087    -0.32540
H5397       H  0.29803213  0.42555986  0.83533135     0.28830
H5398       H  0.34487886  0.49379366  0.85551614     0.28830
H5399       H  0.31228402  0.46452087  0.87746550     0.19420
H5400       H  0.30841534  0.46719407  0.81714631     0.19430
C5401       C  0.36032805  0.30026504  0.95612394    -0.06400
C5402       C  0.34317588  0.29953959  0.95665486    -0.17530
C5403       C  0.33426535  0.30861461  0.96806573     0.10790
C5404       C  0.34250595  0.31935622  0.97883663    -0.06330
C5405       C  0.35968027  0.31891598  0.97937232    -0.17570
C5406       C  0.36864274  0.30929421  0.96835558     0.10820
S5407       S  0.31237545  0.30589776  0.96824949    -0.32530
S5408       S  0.39055516  0.30893731  0.97077879    -0.32540
H5409       H  0.39244239  0.29266484  0.96540463     0.28830
H5410       H  0.31064083  0.30876593  0.98513175     0.28830
H5411       H  0.33654146  0.29223886  0.94780288     0.19420
H5412       H  0.36620419  0.32661296  0.98794546     0.19430
C5413       C  0.45427898  0.30220923  0.85826011    -0.06400
C5414       C  0.45384843  0.30202638  0.84110551    -0.17530
C5415       C  0.46522188  0.31075806  0.83179942     0.10790
C5416       C  0.47723610  0.32045322  0.83969967    -0.06330
C5417       C  0.47811454  0.31997918  0.85688273    -0.17570
C5418       C  0.46706745  0.31075196  0.86617153     0.10820
S5419       S  0.46357126  0.30888224  0.80987775    -0.32530
S5420       S  0.47022776  0.31022601  0.88798444    -0.32540
H5421       H  0.46486287  0.29396026  0.88993058     0.28830
H5422       H  0.48036315  0.31073722  0.80676909     0.28830
H5423       H  0.44430922  0.29531391  0.83480208     0.19420
H5424       H  0.48699919  0.32739100  0.86326031     0.19430
C5425       C  0.30147800  0.63596771  0.95569826    -0.06400
C5426       C  0.29629475  0.65203448  0.95925900    -0.17530
C5427       C  0.30407917  0.66151341  0.97121370     0.10790
C5428       C  0.31818918  0.65543551  0.97913082    -0.06330
C5429       C  0.32307519  0.63927953  0.97587141    -0.17570
C5430       C  0.31433460  0.62922802  0.96517435     0.10820
S5431       S  0.29543662  0.68126308  0.97567297    -0.32530
S5432       S  0.31971092  0.60780668  0.96523495    -0.32540
H5433       H  0.30351739  0.60233035  0.96311984     0.28830
H5434       H  0.29749825  0.67944121  0.99259901     0.28830
H5435       H  0.28620372  0.65745859  0.95261571     0.19420
H5436       H  0.33377138  0.63423869  0.98172624     0.19430
C5437       C  0.30529705  0.54063469  0.85947606    -0.06400
C5438       C  0.29566397  0.52855055  0.85192345    -0.17530
C5439       C  0.30260976  0.51630544  0.84207442     0.10790
C5440       C  0.31987225  0.51571321  0.84009639    -0.06330
C5441       C  0.32945802  0.52712005  0.84875640    -0.17570
C5442       C  0.32248071  0.53973834  0.85789339     0.10820
S5443       S  0.28836837  0.50295198  0.83181852    -0.32530
S5444       S  0.33627069  0.55520109  0.86547741    -0.32540
H5445       H  0.32661157  0.56842136  0.86007217     0.28830
H5446       H  0.29815948  0.49990145  0.81819732     0.28830
H5447       H  0.28246404  0.52906082  0.85315070     0.19420
H5448       H  0.34266332  0.52686028  0.84750378     0.19430
C5449       C  0.51316192  0.32079964  0.84205102    -0.06400
C5450       C  0.51877565  0.32730416  0.85686077    -0.17530
C5451       C  0.52930631  0.31848108  0.86700039     0.10790
C5452       C  0.53626448  0.30361354  0.86130597    -0.06330
C5453       C  0.52979727  0.29661015  0.84694500    -0.17570
C5454       C  0.51787927  0.30475156  0.83769499     0.10820
S5455       S  0.53212171  0.32644548  0.88736679    -0.32530
S5456       S  0.50945424  0.29432896  0.82026943    -0.32540
H5457       H  0.49430927  0.29202036  0.82807165     0.28830
H5458       H  0.53343669  0.31090156  0.89472555     0.28830
H5459       H  0.51460578  0.33923160  0.86082358     0.19420
H5460       H  0.53421106  0.28490041  0.84258877     0.19430
C5461       C  0.63456583  0.30996418  0.95166439    -0.06400
C5462       C  0.64108588  0.30011611  0.96416551    -0.17530
C5463       C  0.64942023  0.30692808  0.97757867     0.10790
C5464       C  0.65084337  0.32419368  0.97885108    -0.06330
C5465       C  0.64321925  0.33396444  0.96687760    -0.17570
C5466       C  0.63566885  0.32717386  0.95316798     0.10820
S5467       S  0.65926562  0.29316169  0.99174142    -0.32530
S5468       S  0.62967833  0.34127385  0.93727251    -0.32540
H5469       H  0.63618700  0.33174017  0.92448532     0.28830
H5470       H  0.65194027  0.27858140  0.98622476     0.28830
H5471       H  0.64017617  0.28693076  0.96306971     0.19420
H5472       H  0.64434617  0.34718691  0.96753302     0.19430
loop_ 
_geom_bond_atom_site_label_1 
_geom_bond_atom_site_label_2 
_geom_bond_distance 
_geom_bond_site_symmetry_2 
_ccdc_geom_bond_type 
N1            N2   1.322       .  A
N1            C5   1.344       .  A
N1           Cu9   2.064       .  S
N2            C3   1.345       .  A
N2           Cu8   2.073       .  S
C3            C4   1.383       .  A
C3            H6   1.082       .  S
C4            C5   1.381       .  A
C4          C880   1.469       .  S
C5            H7   1.082       .  S
Cu8          N11   2.073       .  S
Cu9          N19   2.064       .  S
Cu10         N12   2.072       .  S
Cu10         N18   2.072       .  S
N11          N12   1.322       .  A
N11          C15   1.344       .  A
N12          C13   1.345       .  A
C13          C14   1.383       .  A
C13          H16   1.082       .  S
C14          C15   1.382       .  A
C14        C2152   1.470       .  S
C15          H17   1.082       .  S
N18          N19   1.322       .  A
N18          C22   1.345       .  A
N19          C20   1.343       .  A
C20          C21   1.381       .  A
C20          H23   1.082       .  S
C21          C22   1.383       .  A
C21        C1528   1.467       .  S
C22          H24   1.082       .  S
N25          N26   1.322       .  A
N25          C29   1.344       .  A
N25         Cu33   2.069       .  S
N26          C27   1.344       .  A
N26         Cu32   2.069       .  S
C27          C28   1.382       .  A
C27          H30   1.082       .  S
C28          C29   1.382       .  A
C28        C2030   1.469       .  S
C29          H31   1.082       .  S
Cu32         N35   2.069       .  S
Cu33         N43   2.069       .  S
Cu34         N36   2.075       .  S
Cu34         N42   2.075       .  S
N35          N36   1.322       .  A
N35          C39   1.344       .  A
N36          C37   1.345       .  A
C37          C38   1.384       .  A
C37          H40   1.082       .  S
C38          C39   1.382       .  A
C38         C806   1.470       .  S
C39          H41   1.082       .  S
N42          N43   1.322       .  A
N42          C46   1.345       .  A
N43          C44   1.344       .  A
C44          C45   1.382       .  A
C44          H47   1.082       .  S
C45          C46   1.383       .  A
C45        C2726   1.470       .  S
C46          H48   1.082       .  S
N49          N50   1.322       .  A
N49          C53   1.344       .  A
N49         Cu57   2.069       .  S
N50          C51   1.345       .  A
N50         Cu56   2.075       .  S
C51          C52   1.383       .  A
C51          H54   1.082       .  S
C52          C53   1.382       .  A
C52        C2750   1.470       .  S
C53          H55   1.082       .  S
Cu56         N59   2.075       .  S
Cu57         N67   2.069       .  S
Cu58         N60   2.068       .  S
Cu58         N66   2.068       .  S
N59          N60   1.322       .  A
N59          C63   1.345       .  A
N60          C61   1.344       .  A
C61          C62   1.382       .  A
C61          H64   1.082       .  S
C62          C63   1.384       .  A
C62        C1478   1.470       .  S
C63          H65   1.082       .  S
N66          N67   1.322       .  A
N66          C70   1.344       .  A
N67          C68   1.344       .  A
C68          C69   1.382       .  A
C68          H71   1.082       .  S
C69          C70   1.382       .  A
C69         C782   1.468       .  S
C70          H72   1.082       .  S
N73          N74   1.322       .  A
N73          C77   1.345       .  A
N73         Cu81   2.072       .  S
N74          C75   1.344       .  A
N74         Cu80   2.073       .  S
C75          C76   1.383       .  A
C75          H78   1.082       .  S
C76          C77   1.383       .  A
C76        C1454   1.470       .  S
C77          H79   1.082       .  S
Cu80         N83   2.072       .  S
Cu81         N91   2.072       .  S
Cu82         N84   2.065       .  S
Cu82         N90   2.065       .  S
N83          N84   1.322       .  A
N83          C87   1.345       .  A
N84          C85   1.343       .  A
C85          C86   1.381       .  A
C85          H88   1.082       .  S
C86          C87   1.383       .  A
C86        C2774   1.468       .  S
C87          H89   1.082       .  S
N90          N91   1.322       .  A
N90          C94   1.344       .  A
N91          C92   1.344       .  A
C92          C93   1.383       .  A
C92          H95   1.082       .  S
C93          C94   1.381       .  A
C93        C2054   1.468       .  S
C94          H96   1.082       .  S
N97          N98   1.322       .  A
N97         C101   1.344       .  A
N97        Cu105   2.067       .  S
N98          C99   1.343       .  A
N98        Cu104   2.065       .  S
C99         C100   1.381       .  A
C99         H102   1.082       .  S
C100        C101   1.382       .  A
C100       C2352   1.466       .  S
C101        H103   1.082       .  S
Cu104       N107   2.065       .  S
Cu105       N115   2.067       .  S
Cu106       N108   2.068       .  S
Cu106       N114   2.068       .  S
N107        N108   1.321       .  A
N107        C111   1.343       .  A
N108        C109   1.345       .  A
C109        C110   1.383       .  A
C109        H112   1.082       .  S
C110        C111   1.382       .  A
C110       C3154   1.468       .  S
C111        H113   1.082       .  S
N114        N115   1.322       .  A
N114        C118   1.343       .  A
N115        C116   1.344       .  A
C116        C117   1.382       .  A
C116        H119   1.082       .  S
C117        C118   1.382       .  A
C117       C1130   1.467       .  S
C118        H120   1.082       .  S
N121        N122   1.322       .  A
N121        C125   1.344       .  A
N121       Cu129   2.072       .  S
N122        C123   1.345       .  A
N122       Cu128   2.070       .  S
C123        C124   1.383       .  A
C123        H126   1.082       .  S
C124        C125   1.383       .  A
C124       C1826   1.470       .  S
C125        H127   1.082       .  S
Cu128       N131   2.071       .  S
Cu129       N139   2.072       .  S
Cu130       N132   2.073       .  S
Cu130       N138   2.073       .  S
N131        N132   1.322       .  A
N131        C135   1.345       .  A
N132        C133   1.344       .  A
C133        C134   1.383       .  A
C133        H136   1.082       .  S
C134        C135   1.382       .  A
C134       C2902   1.469       .  S
C135        H137   1.082       .  S
N138        N139   1.322       .  A
N138        C142   1.345       .  A
N139        C140   1.344       .  A
C140        C141   1.383       .  A
C140        H143   1.082       .  S
C141        C142   1.383       .  A
C141       C1080   1.470       .  S
C142        H144   1.082       .  S
N145        N146   1.322       .  A
N145        C149   1.345       .  A
N145       Cu153   2.075       .  S
N146        C147   1.344       .  A
N146       Cu152   2.067       .  S
C147        C148   1.382       .  A
C147        H150   1.082       .  S
C148        C149   1.384       .  A
C148       C1406   1.470       .  S
C149        H151   1.082       .  S
Cu152       N155   2.067       .  S
Cu153       N163   2.076       .  S
Cu154       N156   2.073       .  S
Cu154       N162   2.073       .  S
N155        N156   1.322       .  A
N155        C159   1.343       .  A
N156        C157   1.345       .  A
C157        C158   1.383       .  A
C157        H160   1.082       .  S
C158        C159   1.381       .  A
C158       C2376   1.468       .  S
C159        H161   1.082       .  S
N162        N163   1.323       .  A
N162        C166   1.345       .  A
N163        C164   1.345       .  A
C164        C165   1.383       .  A
C164        H167   1.082       .  S
C165        C166   1.383       .  A
C165       C3130   1.471       .  S
C166        H168   1.082       .  S
N169        N170   1.323       .  A
N169        C173   1.346       .  A
N169       Cu177   2.081       .  S
N170        C171   1.345       .  A
N170       Cu176   2.073       .  S
C171        C172   1.383       .  A
C171        H174   1.082       .  S
C172        C173   1.384       .  A
C172       C2228   1.473       .  S
C173        H175   1.082       .  S
Cu176       N179   2.073       .  S
Cu177       N187   2.081       .  S
Cu178       N180   2.069       .  S
Cu178       N186   2.070       .  S
N179        N180   1.322       .  A
N179        C183   1.345       .  A
N180        C181   1.344       .  A
C181        C182   1.382       .  A
C181        H184   1.082       .  S
C182        C183   1.383       .  A
C182        C856   1.470       .  S
C183        H185   1.082       .  S
N186        N187   1.322       .  A
N186        C190   1.345       .  A
N187        C188   1.346       .  A
C188        C189   1.385       .  A
C188        H191   1.082       .  S
C189        C190   1.382       .  A
C189       C1552   1.473       .  S
C190        H192   1.082       .  S
N193        N194   1.322       .  A
N193        C197   1.344       .  A
N193       Cu201   2.070       .  S
N194        C195   1.344       .  A
N194       Cu200   2.068       .  S
C195        C196   1.382       .  A
C195        H198   1.082       .  S
C196        C197   1.382       .  A
C196        C980   1.469       .  S
C197        H199   1.082       .  S
Cu200       N203   2.068       .  S
Cu201       N211   2.070       .  S
Cu202       N204   2.058       .  S
Cu202       N210   2.058       .  S
N203        N204   1.322       .  A
N203        C207   1.343       .  A
N204        C205   1.343       .  A
C205        C206   1.380       .  A
C205        H208   1.082       .  S
C206        C207   1.382       .  A
C206       C2128   1.464       .  S
C207        H209   1.082       .  S
N210        N211   1.322       .  A
N210        C214   1.343       .  A
N211        C212   1.343       .  A
C212        C213   1.383       .  A
C212        H215   1.082       .  S
C213        C214   1.380       .  A
C213       C1504   1.465       .  S
C214        H216   1.082       .  S
N217        N218   1.322       .  A
N217        C221   1.345       .  A
N217       Cu225   2.072       .  S
N218        C219   1.342       .  A
N218       Cu224   2.062       .  S
C219        C220   1.381       .  A
C219        H222   1.082       .  S
C220        C221   1.384       .  A
C220       C2104   1.468       .  S
C221        H223   1.082       .  S
Cu224       N227   2.062       .  S
Cu225       N235   2.072       .  S
Cu226       N228   2.068       .  S
Cu226       N234   2.069       .  S
N227        N228   1.321       .  A
N227        C231   1.342       .  A
N228        C229   1.345       .  A
C229        C230   1.383       .  A
C229        H232   1.082       .  S
C230        C231   1.381       .  A
C230       C1604   1.466       .  S
C231        H233   1.082       .  S
N234        N235   1.323       .  A
N234        C238   1.344       .  A
N235        C236   1.344       .  A
C236        C237   1.382       .  A
C236        H239   1.082       .  S
C237        C238   1.381       .  A
C237        C904   1.468       .  S
C238        H240   1.082       .  S
N241        N242   1.323       .  A
N241        C245   1.347       .  A
N241       Cu249   2.083       .  S
N242        C243   1.344       .  A
N242       Cu248   2.068       .  S
C243        C244   1.381       .  A
C243        H246   1.082       .  S
C244        C245   1.385       .  A
C244       C1850   1.472       .  S
C245        H247   1.082       .  S
Cu248       N251   2.067       .  S
Cu249       N259   2.083       .  S
Cu250       N252   2.068       .  S
Cu250       N258   2.069       .  S
N251        N252   1.321       .  A
N251        C255   1.345       .  A
N252        C253   1.343       .  A
C253        C254   1.382       .  A
C253        H256   1.082       .  S
C254        C255   1.382       .  A
C254       C2878   1.468       .  S
C255        H257   1.082       .  S
N258        N259   1.323       .  A
N258        C262   1.344       .  A
N259        C260   1.346       .  A
C260        C261   1.385       .  A
C260        H263   1.082       .  S
C261        C262   1.382       .  A
C261       C2006   1.472       .  S
C262        H264   1.082       .  S
N265        N266   1.322       .  A
N265        C269   1.344       .  A
N265       Cu273   2.074       .  S
N266        C267   1.344       .  A
N266       Cu272   2.064       .  S
C267        C268   1.381       .  A
C267        H270   1.082       .  S
C268        C269   1.383       .  A
C268       C2402   1.469       .  S
C269        H271   1.082       .  S
Cu272       N275   2.065       .  S
Cu273       N283   2.074       .  S
Cu274       N276   2.066       .  S
Cu274       N282   2.066       .  S
N275        N276   1.322       .  A
N275        C279   1.343       .  A
N276        C277   1.344       .  A
C277        C278   1.382       .  A
C277        H280   1.082       .  S
C278        C279   1.381       .  A
C278       C3028   1.466       .  S
C279        H281   1.082       .  S
N282        N283   1.322       .  A
N282        C286   1.344       .  A
N283        C284   1.344       .  A
C284        C285   1.383       .  A
C284        H287   1.082       .  S
C285        C286   1.381       .  A
C285       C1728   1.468       .  S
C286        H288   1.082       .  S
N289        N290   1.322       .  A
N289        C293   1.345       .  A
N289       Cu297   2.069       .  S
N290        C291   1.344       .  A
N290       Cu296   2.072       .  S
C291        C292   1.383       .  A
C291        H294   1.082       .  S
C292        C293   1.383       .  A
C292       C1430   1.470       .  S
C293        H295   1.082       .  S
Cu296       N299   2.072       .  S
Cu297       N307   2.069       .  S
Cu298       N300   2.075       .  S
Cu298       N306   2.075       .  S
N299        N300   1.322       .  A
N299        C303   1.344       .  A
N300        C301   1.346       .  A
C301        C302   1.384       .  A
C301        H304   1.082       .  S
C302        C303   1.383       .  A
C302       C3106   1.472       .  S
C303        H305   1.082       .  S
N306        N307   1.323       .  A
N306        C310   1.345       .  A
N307        C308   1.344       .  A
C308        C309   1.382       .  A
C308        H311   1.082       .  S
C309        C310   1.383       .  A
C309       C1178   1.469       .  S
C310        H312   1.082       .  S
N313        N314   1.322       .  A
N313        C317   1.345       .  A
N313       Cu321   2.073       .  S
N314        C315   1.344       .  A
N314       Cu320   2.072       .  S
C315        C316   1.383       .  A
C315        H318   1.082       .  S
C316        C317   1.383       .  A
C316       C1776   1.470       .  S
C317        H319   1.082       .  S
Cu320       N323   2.072       .  S
Cu321       N331   2.073       .  S
Cu322       N324   2.066       .  S
Cu322       N330   2.066       .  S
N323        N324   1.322       .  A
N323        C327   1.345       .  A
N324        C325   1.344       .  A
C325        C326   1.382       .  A
C325        H328   1.082       .  S
C326        C327   1.383       .  A
C326       C2980   1.468       .  S
C327        H329   1.082       .  S
N330        N331   1.322       .  A
N330        C334   1.344       .  A
N331        C332   1.345       .  A
C332        C333   1.383       .  A
C332        H335   1.082       .  S
C333        C334   1.381       .  A
C333        C734   1.468       .  S
C334        H336   1.082       .  S
N337        N338   1.322       .  A
N337        C341   1.345       .  A
N337       Cu345   2.076       .  S
N338        C339   1.345       .  A
N338       Cu344   2.075       .  S
C339        C340   1.383       .  A
C339        H342   1.082       .  S
C340        C341   1.384       .  A
C340       C2450   1.472       .  S
C341        H343   1.082       .  S
Cu344       N347   2.074       .  S
Cu345       N355   2.076       .  S
Cu346       N348   2.071       .  S
Cu346       N354   2.071       .  S
N347        N348   1.322       .  A
N347        C351   1.345       .  A
N348        C349   1.345       .  A
C349        C350   1.382       .  A
C349        H352   1.082       .  S
C350        C351   1.383       .  A
C350        C758   1.471       .  S
C351        H353   1.082       .  S
N354        N355   1.322       .  A
N354        C358   1.344       .  A
N355        C356   1.346       .  A
C356        C357   1.384       .  A
C356        H359   1.082       .  S
C357        C358   1.382       .  A
C357       C3004   1.471       .  S
C358        H360   1.082       .  S
N361        N362   1.322       .  A
N361        C365   1.344       .  A
N361       Cu369   2.071       .  S
N362        C363   1.344       .  A
N362       Cu368   2.067       .  S
C363        C364   1.382       .  A
C363        H366   1.082       .  S
C364        C365   1.383       .  A
C364       C1982   1.468       .  S
C365        H367   1.082       .  S
Cu368       N371   2.068       .  S
Cu369       N379   2.071       .  S
Cu370       N372   2.074       .  S
Cu370       N378   2.074       .  S
N371        N372   1.322       .  A
N371        C375   1.344       .  A
N372        C373   1.345       .  A
C373        C374   1.383       .  A
C373        H376   1.082       .  S
C374        C375   1.382       .  A
C374       C2854   1.470       .  S
C375        H377   1.082       .  S
N378        N379   1.322       .  A
N378        C382   1.345       .  A
N379        C380   1.345       .  A
C380        C381   1.383       .  A
C380        H383   1.082       .  S
C381        C382   1.383       .  A
C381       C1104   1.470       .  S
C382        H384   1.082       .  S
N385        N386   1.322       .  A
N385        C389   1.346       .  A
N385       Cu393   2.077       .  S
N386        C387   1.344       .  A
N386       Cu392   2.069       .  S
C387        C388   1.382       .  A
C387        H390   1.082       .  S
C388        C389   1.384       .  A
C388       C1876   1.471       .  S
C389        H391   1.082       .  S
Cu392       N395   2.069       .  S
Cu393       N403   2.077       .  S
Cu394       N396   2.070       .  S
Cu394       N402   2.070       .  S
N395        N396   1.322       .  A
N395        C399   1.344       .  A
N396        C397   1.345       .  A
C397        C398   1.383       .  A
C397        H400   1.082       .  S
C398        C399   1.382       .  A
C398       C2930   1.469       .  S
C399        H401   1.082       .  S
N402        N403   1.323       .  A
N402        C406   1.344       .  A
N403        C404   1.345       .  A
C404        C405   1.383       .  A
C404        H407   1.082       .  S
C405        C406   1.382       .  A
C405        C686   1.470       .  S
C406        H408   1.082       .  S
N409        N410   1.322       .  A
N409        C413   1.344       .  A
N409       Cu417   2.065       .  S
N410        C411   1.343       .  A
N410       Cu416   2.065       .  S
C411        C412   1.381       .  A
C411        H414   1.082       .  S
C412        C413   1.381       .  A
C412       C2500   1.465       .  S
C413        H415   1.082       .  S
Cu416       N419   2.065       .  S
Cu417       N427   2.065       .  S
Cu418       N420   2.070       .  S
Cu418       N426   2.070       .  S
N419        N420   1.322       .  A
N419        C423   1.344       .  A
N420        C421   1.344       .  A
C421        C422   1.383       .  A
C421        H424   1.082       .  S
C422        C423   1.381       .  A
C422       C3080   1.468       .  S
C423        H425   1.082       .  S
N426        N427   1.322       .  A
N426        C430   1.344       .  A
N427        C428   1.344       .  A
C428        C429   1.381       .  A
C428        H431   1.082       .  S
C429        C430   1.382       .  A
C429        C710   1.467       .  S
C430        H432   1.082       .  S
N433        N434   1.322       .  A
N433        C437   1.343       .  A
N433       Cu441   2.063       .  S
N434        C435   1.345       .  A
N434       Cu440   2.074       .  S
C435        C436   1.383       .  A
C435        H438   1.082       .  S
C436        C437   1.381       .  A
C436        C832   1.468       .  S
C437        H439   1.082       .  S
Cu440       N443   2.073       .  S
Cu441       N451   2.062       .  S
Cu442       N444   2.069       .  S
Cu442       N450   2.068       .  S
N443        N444   1.322       .  A
N443        C447   1.345       .  A
N444        C445   1.344       .  A
C445        C446   1.382       .  A
C445        H448   1.082       .  S
C446        C447   1.383       .  A
C446       C1628   1.469       .  S
C447        H449   1.082       .  S
N450        N451   1.322       .  A
N450        C454   1.343       .  A
N451        C452   1.344       .  A
C452        C453   1.381       .  A
C452        H455   1.082       .  S
C453        C454   1.382       .  A
C453       C2204   1.466       .  S
C454        H456   1.082       .  S
N457        N458   1.322       .  A
N457        C461   1.345       .  A
N457       Cu465   2.069       .  S
N458        C459   1.344       .  A
N458       Cu464   2.074       .  S
C459        C460   1.383       .  A
C459        H462   1.082       .  S
C460        C461   1.382       .  A
C460       C2252   1.470       .  S
C461        H463   1.082       .  S
Cu464       N467   2.074       .  S
Cu465       N475   2.069       .  S
Cu466       N468   2.070       .  S
Cu466       N474   2.070       .  S
N467        N468   1.322       .  A
N467        C471   1.345       .  A
N468        C469   1.344       .  A
C469        C470   1.382       .  A
C469        H472   1.082       .  S
C470        C471   1.383       .  A
C470        C956   1.470       .  S
C471        H473   1.082       .  S
N474        N475   1.322       .  A
N474        C478   1.345       .  A
N475        C476   1.344       .  A
C476        C477   1.382       .  A
C476        H479   1.082       .  S
C477        C478   1.383       .  A
C477       C1382   1.469       .  S
C478        H480   1.082       .  S
N481        N482   1.322       .  A
N481        C485   1.344       .  A
N481       Cu489   2.070       .  S
N482        C483   1.344       .  A
N482       Cu488   2.066       .  S
C483        C484   1.382       .  A
C483        H486   1.082       .  S
C484        C485   1.383       .  A
C484       C2476   1.468       .  S
C485        H487   1.082       .  S
Cu488       N491   2.066       .  S
Cu489       N499   2.071       .  S
Cu490       N492   2.073       .  S
Cu490       N498   2.073       .  S
N491        N492   1.322       .  A
N491        C495   1.344       .  A
N492        C493   1.345       .  A
C493        C494   1.383       .  A
C493        H496   1.082       .  S
C494        C495   1.381       .  A
C494       C1334   1.469       .  S
C495        H497   1.082       .  S
N498        N499   1.322       .  A
N498        C502   1.346       .  A
N499        C500   1.344       .  A
C500        C501   1.382       .  A
C500        H503   1.082       .  S
C501        C502   1.383       .  A
C501       C3056   1.470       .  S
C502        H504   1.082       .  S
N505        N506   1.323       .  A
N505        C509   1.345       .  A
N505       Cu513   2.078       .  S
N506        C507   1.346       .  A
N506       Cu512   2.080       .  S
C507        C508   1.384       .  A
C507        H510   1.082       .  S
C508        C509   1.383       .  A
C508       C1358   1.474       .  S
C509        H511   1.082       .  S
Cu512       N515   2.080       .  S
Cu513       N523   2.078       .  S
Cu514       N516   2.068       .  S
Cu514       N522   2.068       .  S
N515        N516   1.322       .  A
N515        C519   1.346       .  A
N516        C517   1.345       .  A
C517        C518   1.382       .  A
C517        H520   1.082       .  S
C518        C519   1.385       .  A
C518       C1228   1.471       .  S
C519        H521   1.082       .  S
N522        N523   1.322       .  A
N522        C526   1.344       .  A
N523        C524   1.346       .  A
C524        C525   1.384       .  A
C524        H527   1.082       .  S
C525        C526   1.382       .  A
C525       C2828   1.471       .  S
C526        H528   1.082       .  S
N529        N530   1.322       .  A
N529        C533   1.345       .  A
N529       Cu537   2.072       .  S
N530        C531   1.344       .  A
N530       Cu536   2.072       .  S
C531        C532   1.382       .  A
C531        H534   1.082       .  S
C532        C533   1.383       .  A
C532       C1656   1.470       .  S
C533        H535   1.082       .  S
Cu536       N539   2.072       .  S
Cu537       N547   2.072       .  S
Cu538       N540   2.064       .  S
Cu538       N546   2.064       .  S
N539        N540   1.322       .  A
N539        C543   1.345       .  A
N540        C541   1.343       .  A
C541        C542   1.381       .  A
C541        H544   1.082       .  S
C542        C543   1.383       .  A
C542       C1032   1.468       .  S
C543        H545   1.082       .  S
N546        N547   1.322       .  A
N546        C550   1.344       .  A
N547        C548   1.344       .  A
C548        C549   1.383       .  A
C548        H551   1.082       .  S
C549        C550   1.381       .  A
C549       C2180   1.468       .  S
C550        H552   1.082       .  S
N553        N554   1.323       .  A
N553        C557   1.346       .  A
N553       Cu561   2.080       .  S
N554        C555   1.345       .  A
N554       Cu560   2.074       .  S
C555        C556   1.383       .  A
C555        H558   1.082       .  S
C556        C557   1.384       .  A
C556       C1934   1.473       .  S
C557        H559   1.082       .  S
Cu560       N563   2.074       .  S
Cu561       N571   2.080       .  S
Cu562       N564   2.072       .  S
Cu562       N570   2.073       .  S
N563        N564   1.322       .  A
N563        C567   1.345       .  A
N564        C565   1.345       .  A
C565        C566   1.383       .  A
C565        H568   1.082       .  S
C566        C567   1.384       .  A
C566       C2954   1.472       .  S
C567        H569   1.082       .  S
N570        N571   1.323       .  A
N570        C574   1.344       .  A
N571        C572   1.347       .  A
C572        C573   1.384       .  A
C572        H575   1.082       .  S
C573        C574   1.382       .  A
C573       C1900   1.472       .  S
C574        H576   1.082       .  S
N577        N578   1.322       .  A
N577        C581   1.344       .  A
N577       Cu585   2.069       .  S
N578        C579   1.343       .  A
N578       Cu584   2.063       .  S
C579        C580   1.381       .  A
C579        H582   1.082       .  S
C580        C581   1.382       .  A
C580       C1580   1.466       .  S
C581        H583   1.082       .  S
Cu584       N587   2.063       .  S
Cu585       N595   2.069       .  S
Cu586       N588   2.063       .  S
Cu586       N594   2.063       .  S
N587        N588   1.321       .  A
N587        C591   1.342       .  A
N588        C589   1.344       .  A
C589        C590   1.381       .  A
C589        H592   1.082       .  S
C590        C591   1.381       .  A
C590       C2080   1.465       .  S
C591        H593   1.082       .  S
N594        N595   1.322       .  A
N594        C598   1.342       .  A
N595        C596   1.344       .  A
C596        C597   1.382       .  A
C596        H599   1.082       .  S
C597        C598   1.381       .  A
C597       C1004   1.466       .  S
C598        H600   1.082       .  S
N601        N602   1.322       .  A
N601        C605   1.345       .  A
N601       Cu609   2.068       .  S
N602        C603   1.343       .  A
N602       Cu608   2.069       .  S
C603        C604   1.382       .  A
C603        H606   1.082       .  S
C604        C605   1.382       .  A
C604       C1958   1.468       .  S
C605        H607   1.082       .  S
Cu608       N611   2.069       .  S
Cu609       N619   2.068       .  S
Cu610       N612   2.068       .  S
Cu610       N618   2.068       .  S
N611        N612   1.322       .  A
N611        C615   1.344       .  A
N612        C613   1.344       .  A
C613        C614   1.382       .  A
C613        H616   1.082       .  S
C614        C615   1.382       .  A
C614       C2804   1.468       .  S
C615        H617   1.082       .  S
N618        N619   1.322       .  A
N618        C622   1.344       .  A
N619        C620   1.344       .  A
C620        C621   1.382       .  A
C620        H623   1.082       .  S
C621        C622   1.382       .  A
C621       C1204   1.468       .  S
C622        H624   1.082       .  S
N625        N626   1.322       .  A
N625        C629   1.346       .  A
N625       Cu633   2.075       .  S
N626        C627   1.343       .  A
N626       Cu632   2.066       .  S
C627        C628   1.381       .  A
C627        H630   1.082       .  S
C628        C629   1.384       .  A
C628       C1680   1.469       .  S
C629        H631   1.082       .  S
Cu632       N635   2.066       .  S
Cu633       N643   2.075       .  S
Cu634       N636   2.067       .  S
Cu634       N642   2.067       .  S
N635        N636   1.321       .  A
N635        C639   1.344       .  A
N636        C637   1.343       .  A
C637        C638   1.382       .  A
C637        H640   1.082       .  S
C638        C639   1.382       .  A
C638        C932   1.467       .  S
C639        H641   1.082       .  S
N642        N643   1.322       .  A
N642        C646   1.345       .  A
N643        C644   1.344       .  A
C644        C645   1.383       .  A
C644        H647   1.082       .  S
C645        C646   1.381       .  A
C645       C2654   1.469       .  S
C646        H648   1.082       .  S
N649        N650   1.322       .  A
N649        C653   1.344       .  A
N649       Cu657   2.068       .  S
N650        C651   1.345       .  A
N650       Cu656   2.071       .  S
C651        C652   1.383       .  A
C651        H654   1.082       .  S
C652        C653   1.382       .  A
C652       C2582   1.469       .  S
C653        H655   1.082       .  S
Cu656       N659   2.071       .  S
Cu657       N667   2.068       .  S
Cu658       N660   2.074       .  S
Cu658       N666   2.074       .  S
N659        N660   1.322       .  A
N659        C663   1.344       .  A
N660        C661   1.345       .  A
C661        C662   1.383       .  A
C661        H664   1.082       .  S
C662        C663   1.382       .  A
C662       C2426   1.470       .  S
C663        H665   1.082       .  S
N666        N667   1.322       .  A
N666        C670   1.345       .  A
N667        C668   1.344       .  A
C668        C669   1.382       .  A
C668        H671   1.082       .  S
C669        C670   1.383       .  A
C669       C1056   1.469       .  S
C670        H672   1.082       .  S
N673        N674   1.318       .  A
N673        C677   1.339       .  A
N673       Cu681   2.061       .  S
N674        C675   1.346       .  A
N674       Cu680   2.073       .  S
C675        C676   1.392       .  A
C675        H678   1.081       .  S
C676        C677   1.388       .  A
C676       C5452   1.492       .  S
C677        H679   1.079       .  S
Cu680       N683   2.074       .  S
Cu681       N691   2.061       .  S
Cu682       N684   2.077       .  S
Cu682       N690   2.076       .  S
N683        N684   1.324       .  A
N683        C687   1.345       .  A
N684        C685   1.345       .  A
C685        C686   1.383       .  A
C685        H688   1.082       .  S
C686        C687   1.382       .  A
C687        H689   1.082       .  S
N690        N691   1.320       .  A
N690        C694   1.345       .  A
N691        C692   1.343       .  A
C692        C693   1.385       .  A
C692        H695   1.081       .  S
C693        C694   1.388       .  A
C693       C5461   1.484       .  S
C694        H696   1.082       .  S
N697        N698   1.321       .  A
N697        C701   1.345       .  A
N697       Cu705   2.073       .  S
N698        C699   1.344       .  A
N698       Cu704   2.071       .  S
C699        C700   1.385       .  A
C699        H702   1.082       .  S
C700        C701   1.387       .  A
C700       C5437   1.483       .  S
C701        H703   1.081       .  S
Cu704       N707   2.071       .  S
Cu705       N715   2.073       .  S
Cu706       N708   2.066       .  S
Cu706       N714   2.065       .  S
N707        N708   1.322       .  A
N707        C711   1.344       .  A
N708        C709   1.343       .  A
C709        C710   1.381       .  A
C709        H712   1.082       .  S
C710        C711   1.383       .  A
C711        H713   1.082       .  S
N714        N715   1.319       .  A
N714        C718   1.343       .  A
N715        C716   1.343       .  A
C716        C717   1.391       .  A
C716        H719   1.079       .  S
C717        C718   1.389       .  A
C717       C5425   1.492       .  S
C718        H720   1.081       .  S
N721        N722   1.322       .  A
N721        C725   1.345       .  A
N721       Cu729   2.078       .  S
N722        C723   1.344       .  A
N722       Cu728   2.071       .  S
C723        C724   1.386       .  A
C723        H726   1.082       .  S
C724        C725   1.387       .  A
C724       C5401   1.485       .  S
C725        H727   1.081       .  S
Cu728       N731   2.071       .  S
Cu729       N739   2.078       .  S
Cu730       N732   2.064       .  S
Cu730       N738   2.065       .  S
N731        N732   1.321       .  A
N731        C735   1.344       .  A
N732        C733   1.344       .  A
C733        C734   1.382       .  A
C733        H736   1.082       .  S
C734        C735   1.383       .  A
C735        H737   1.082       .  S
N738        N739   1.321       .  A
N738        C742   1.342       .  A
N739        C740   1.346       .  A
C740        C741   1.388       .  A
C740        H743   1.081       .  S
C741        C742   1.384       .  A
C741       C5413   1.483       .  S
C742        H744   1.082       .  S
N745        N746   1.323       .  A
N745        C749   1.343       .  A
N745       Cu753   2.076       .  S
N746        C747   1.346       .  A
N746       Cu752   2.078       .  S
C747        C748   1.386       .  A
C747        H750   1.082       .  S
C748        C749   1.385       .  A
C748       C5377   1.483       .  S
C749        H751   1.082       .  S
Cu752       N755   2.077       .  S
Cu753       N763   2.075       .  S
Cu754       N756   2.068       .  S
Cu754       N762   2.067       .  S
N755        N756   1.322       .  A
N755        C759   1.346       .  A
N756        C757   1.344       .  A
C757        C758   1.381       .  A
C757        H760   1.082       .  S
C758        C759   1.384       .  A
C759        H761   1.082       .  S
N762        N763   1.320       .  A
N762        C766   1.342       .  A
N763        C764   1.346       .  A
C764        C765   1.388       .  A
C764        H767   1.082       .  S
C765        C766   1.386       .  A
C765       C5389   1.486       .  S
C766        H768   1.081       .  S
N769        N770   1.321       .  A
N769        C773   1.343       .  A
N769       Cu777   2.080       .  S
N770        C771   1.346       .  A
N770       Cu776   2.071       .  S
C771        C772   1.388       .  A
C771        H774   1.081       .  S
C772        C773   1.389       .  A
C772       C5353   1.489       .  S
C773        H775   1.082       .  S
Cu776       N779   2.071       .  S
Cu777       N787   2.079       .  S
Cu778       N780   2.069       .  S
Cu778       N786   2.069       .  S
N779        N780   1.322       .  A
N779        C783   1.345       .  A
N780        C781   1.344       .  A
C781        C782   1.382       .  A
C781        H784   1.082       .  S
C782        C783   1.382       .  A
C783        H785   1.082       .  S
N786        N787   1.321       .  A
N786        C790   1.344       .  A
N787        C788   1.346       .  A
C788        C789   1.388       .  A
C788        H791   1.082       .  S
C789        C790   1.386       .  A
C789       C5365   1.486       .  S
C790        H792   1.081       .  S
N793        N794   1.318       .  A
N793        C797   1.346       .  A
N793       Cu801   2.085       .  S
N794        C795   1.339       .  A
N794       Cu800   2.065       .  S
C795        C796   1.393       .  A
C795        H798   1.072       .  S
C796        C797   1.399       .  A
C796       C5329   1.507       .  S
C797        H799   1.080       .  S
Cu800       N803   2.065       .  S
Cu801       N811   2.085       .  S
Cu802       N804   2.070       .  S
Cu802       N810   2.070       .  S
N803        N804   1.320       .  A
N803        C807   1.345       .  A
N804        C805   1.345       .  A
C805        C806   1.384       .  A
C805        H808   1.082       .  S
C806        C807   1.383       .  A
C807        H809   1.082       .  S
N810        N811   1.322       .  A
N810        C814   1.341       .  A
N811        C812   1.348       .  A
C812        C813   1.390       .  A
C812        H815   1.081       .  S
C813        C814   1.385       .  A
C813       C5341   1.488       .  S
C814        H816   1.082       .  S
C817        C818   1.367   1_556  D
C817       C5380   1.499       .  S
C817       C5404   1.496       .  S
C818       C5332   1.490       .  S
C818       C5356   1.494       .  S
N819        N820   1.321       .  A
N819        C823   1.345       .  A
N819       Cu827   2.073       .  S
N820        C821   1.343       .  A
N820       Cu826   2.064       .  S
C821        C822   1.383       .  A
C821        H824   1.082       .  S
C822        C823   1.386       .  A
C822       C5317   1.479       .  S
C823        H825   1.081       .  S
Cu826       N829   2.064       .  S
Cu827       N837   2.073       .  S
Cu828       N830   2.075       .  S
Cu828       N836   2.076       .  S
N829        N830   1.322       .  A
N829        C833   1.343       .  A
N830        C831   1.345       .  A
C831        C832   1.383       .  A
C831        H834   1.082       .  S
C832        C833   1.381       .  A
C833        H835   1.082       .  S
N836        N837   1.322       .  A
N836        C840   1.346       .  A
N837        C838   1.343       .  A
C838        C839   1.384       .  A
C838        H841   1.082       .  S
C839        C840   1.386       .  A
C839       C5305   1.481       .  S
C840        H842   1.082       .  S
N843        N844   1.322       .  A
N843        C847   1.348       .  A
N843       Cu851   2.088       .  S
N844        C845   1.343       .  A
N844       Cu850   2.068       .  S
C845        C846   1.384       .  A
C845        H848   1.081       .  S
C846        C847   1.389       .  A
C846       C5296   1.486       .  S
C847        H849   1.082       .  S
Cu850       N853   2.068       .  S
Cu851       N861   2.088       .  S
Cu852       N854   2.070       .  S
Cu852       N860   2.071       .  S
N853        N854   1.321       .  A
N853        C857   1.345       .  A
N854        C855   1.345       .  A
C855        C856   1.383       .  A
C855        H858   1.082       .  S
C856        C857   1.383       .  A
C857        H859   1.082       .  S
N860        N861   1.322       .  A
N860        C864   1.344       .  A
N861        C862   1.347       .  A
C862        C863   1.389       .  A
C862        H865   1.082       .  S
C863        C864   1.385       .  A
C863       C5281   1.488       .  S
C864        H866   1.081       .  S
N867        N868   1.321       .  A
N867        C871   1.344       .  A
N867       Cu875   2.070       .  S
N868        C869   1.344       .  A
N868       Cu874   2.067       .  S
C869        C870   1.384       .  A
C869        H872   1.082       .  S
C870        C871   1.385       .  A
C870       C5269   1.479       .  S
C871        H873   1.082       .  S
Cu874       N877   2.067       .  S
Cu875       N885   2.070       .  S
Cu876       N878   2.077       .  S
Cu876       N884   2.077       .  S
N877        N878   1.323       .  A
N877        C881   1.344       .  A
N878        C879   1.345       .  A
C879        C880   1.383       .  A
C879        H882   1.082       .  S
C880        C881   1.381       .  A
C881        H883   1.082       .  S
N884        N885   1.321       .  A
N884        C888   1.347       .  A
N885        C886   1.342       .  A
C886        C887   1.385       .  A
C886        H889   1.082       .  S
C887        C888   1.388       .  A
C887       C5257   1.485       .  S
C888        H890   1.081       .  S
N891        N892   1.323       .  A
N891        C895   1.349       .  A
N891       Cu899   2.092       .  S
N892        C893   1.340       .  A
N892       Cu898   2.063       .  S
C893        C894   1.382       .  A
C893        H896   1.081       .  S
C894        C895   1.389       .  A
C894       C5233   1.485       .  S
C895        H897   1.082       .  S
Cu898       N901   2.063       .  S
Cu899       N909   2.092       .  S
Cu900       N902   2.061       .  S
Cu900       N908   2.062       .  S
N901        N902   1.319       .  A
N901        C905   1.344       .  A
N902        C903   1.344       .  A
C903        C904   1.383       .  A
C903        H906   1.082       .  S
C904        C905   1.383       .  A
C905        H907   1.082       .  S
N908        N909   1.323       .  A
N908        C912   1.339       .  A
N909        C910   1.350       .  A
C910        C911   1.390       .  A
C910        H913   1.082       .  S
C911        C912   1.381       .  A
C911       C5245   1.483       .  S
C912        H914   1.082       .  S
C915        C916   1.371       .  D
C915       C5272   1.497       .  S
C915       C5344   1.503       .  S
C916       C5221   1.495       .  S
C916       C5236   1.495       .  S
C917        C918   1.371       .  D
C917       C5260   1.496       .  S
C917       C5368   1.506       .  S
C918       C5209   1.491       .  S
C918       C5284   1.502       .  S
N919        N920   1.321       .  A
N919        C923   1.345       .  A
N919       Cu927   2.078       .  S
N920        C921   1.344       .  A
N920       Cu926   2.063       .  S
C921        C922   1.384       .  A
C921        H924   1.081       .  S
C922        C923   1.386       .  A
C922       C5185   1.481       .  S
C923        H925   1.082       .  S
Cu926       N929   2.063       .  S
Cu927       N937   2.078       .  S
Cu928       N930   2.070       .  S
Cu928       N936   2.069       .  S
N929        N930   1.322       .  A
N929        C933   1.343       .  A
N930        C931   1.345       .  A
C931        C932   1.383       .  A
C931        H934   1.082       .  S
C932        C933   1.381       .  A
C933        H935   1.082       .  S
N936        N937   1.318       .  A
N936        C940   1.344       .  A
N937        C938   1.341       .  A
C938        C939   1.395       .  A
C938        H941   1.080       .  S
C939        C940   1.393       .  A
C939       C5197   1.503       .  S
C940        H942   1.076       .  S
N943        N944   1.322       .  A
N943        C947   1.346       .  A
N943       Cu951   2.084       .  S
N944        C945   1.344       .  A
N944       Cu950   2.070       .  S
C945        C946   1.385       .  A
C945        H948   1.081       .  S
C946        C947   1.389       .  A
C946       C5173   1.486       .  S
C947        H949   1.082       .  S
Cu950       N953   2.070       .  S
Cu951       N961   2.083       .  S
Cu952       N954   2.070       .  S
Cu952       N960   2.070       .  S
N953        N954   1.321       .  A
N953        C957   1.345       .  A
N954        C955   1.344       .  A
C955        C956   1.383       .  A
C955        H958   1.082       .  S
C956        C957   1.383       .  A
C957        H959   1.082       .  S
N960        N961   1.321       .  A
N960        C964   1.343       .  A
N961        C962   1.347       .  A
C962        C963   1.389       .  A
C962        H965   1.082       .  S
C963        C964   1.386       .  A
C963       C5161   1.488       .  S
C964        H966   1.081       .  S
N967        N968   1.321       .  A
N967        C971   1.344       .  A
N967       Cu975   2.069       .  S
N968        C969   1.344       .  A
N968       Cu974   2.072       .  S
C969        C970   1.385       .  A
C969        H972   1.082       .  S
C970        C971   1.385       .  A
C970       C5149   1.482       .  S
C971        H973   1.081       .  S
Cu974       N977   2.072       .  S
Cu975       N985   2.070       .  S
Cu976       N978   2.072       .  S
Cu976       N984   2.072       .  S
N977        N978   1.323       .  A
N977        C981   1.344       .  A
N978        C979   1.344       .  A
C979        C980   1.382       .  A
C979        H982   1.082       .  S
C980        C981   1.382       .  A
C981        H983   1.082       .  S
N984        N985   1.321       .  A
N984        C988   1.346       .  A
N985        C986   1.342       .  A
C986        C987   1.384       .  A
C986        H989   1.082       .  S
C987        C988   1.385       .  A
C987       C5137   1.478       .  S
C988        H990   1.082       .  S
N991        N992   1.320       .  A
N991        C995   1.347       .  A
N991       Cu999   2.080       .  S
N992        C993   1.341       .  A
N992       Cu998   2.064       .  S
C993        C994   1.385       .  A
C993        H996   1.082       .  S
C994        C995   1.390       .  A
C994       C5113   1.486       .  S
C995        H997   1.081       .  S
Cu998      N1001   2.063       .  S
Cu999      N1009   2.081       .  S
Cu1000     N1002   2.065       .  S
Cu1000     N1008   2.066       .  S
N1001      N1002   1.321       .  A
N1001      C1005   1.342       .  A
N1002      C1003   1.344       .  A
C1003      C1004   1.382       .  A
C1003      H1006   1.082       .  S
C1004      C1005   1.381       .  A
C1005      H1007   1.082       .  S
N1008      N1009   1.322       .  A
N1008      C1012   1.345       .  A
N1009      C1010   1.344       .  A
C1010      C1011   1.386       .  A
C1010      H1013   1.082       .  S
C1011      C1012   1.383       .  A
C1011      C5125   1.480       .  S
C1012      H1014   1.082       .  S
C1015      C1016   1.370       .  D
C1015      C5116   1.498       .  S
C1015      C5440   1.502       .  S
C1016      C5152   1.498       .  S
C1016      C5392   1.492       .  S
C1017      C1018   1.371       .  D
C1017      C5164   1.504       .  S
C1017      C5449   1.492       .  S
C1018      C5140   1.497       .  S
C1018      C5416   1.502       .  S
N1019      N1020   1.321       .  A
N1019      C1023   1.344       .  A
N1019     Cu1027   2.070       .  S
N1020      C1021   1.342       .  A
N1020     Cu1026   2.067       .  S
C1021      C1022   1.385       .  A
C1021      H1024   1.081       .  S
C1022      C1023   1.385       .  A
C1022      C5089   1.482       .  S
C1023      H1025   1.082       .  S
Cu1026     N1029   2.066       .  S
Cu1027     N1037   2.070       .  S
Cu1028     N1030   2.069       .  S
Cu1028     N1036   2.069       .  S
N1029      N1030   1.321       .  A
N1029      C1033   1.344       .  A
N1030      C1031   1.344       .  A
C1031      C1032   1.383       .  A
C1031      H1034   1.082       .  S
C1032      C1033   1.382       .  A
C1033      H1035   1.082       .  S
N1036      N1037   1.321       .  A
N1036      C1040   1.342       .  A
N1037      C1038   1.345       .  A
C1038      C1039   1.387       .  A
C1038      H1041   1.081       .  S
C1039      C1040   1.386       .  A
C1039      C5101   1.484       .  S
C1040      H1042   1.082       .  S
N1043      N1044   1.321       .  A
N1043      C1047   1.348       .  A
N1043     Cu1051   2.078       .  S
N1044      C1045   1.341       .  A
N1044     Cu1050   2.066       .  S
C1045      C1046   1.383       .  A
C1045      H1048   1.082       .  S
C1046      C1047   1.387       .  A
C1046      C5077   1.481       .  S
C1047      H1049   1.082       .  S
Cu1050     N1053   2.065       .  S
Cu1051     N1061   2.078       .  S
Cu1052     N1054   2.069       .  S
Cu1052     N1060   2.070       .  S
N1053      N1054   1.321       .  A
N1053      C1057   1.344       .  A
N1054      C1055   1.344       .  A
C1055      C1056   1.383       .  A
C1055      H1058   1.082       .  S
C1056      C1057   1.382       .  A
C1057      H1059   1.082       .  S
N1060      N1061   1.322       .  A
N1060      C1064   1.343       .  A
N1061      C1062   1.345       .  A
C1062      C1063   1.388       .  A
C1062      H1065   1.081       .  S
C1063      C1064   1.386       .  A
C1063      C5065   1.486       .  S
C1064      H1066   1.082       .  S
N1067      N1068   1.322       .  A
N1067      C1071   1.345       .  A
N1067     Cu1075   2.079       .  S
N1068      C1069   1.344       .  A
N1068     Cu1074   2.069       .  S
C1069      C1070   1.383       .  A
C1069      H1072   1.082       .  S
C1070      C1071   1.386       .  A
C1070      C5212   1.481       .  S
C1071      H1073   1.081       .  S
Cu1074     N1077   2.068       .  S
Cu1075     N1085   2.078       .  S
Cu1076     N1078   2.072       .  S
Cu1076     N1084   2.072       .  S
N1077      N1078   1.321       .  A
N1077      C1081   1.344       .  A
N1078      C1079   1.345       .  A
C1079      C1080   1.384       .  A
C1079      H1082   1.082       .  S
C1080      C1081   1.383       .  A
C1081      H1083   1.082       .  S
N1084      N1085   1.318       .  A
N1084      C1088   1.341       .  A
N1085      C1086   1.346       .  A
C1086      C1087   1.395       .  A
C1086      H1089   1.080       .  S
C1087      C1088   1.393       .  A
C1087      C5056   1.503       .  S
C1088      H1090   1.076       .  S
N1091      N1092   1.322       .  A
N1091      C1095   1.345       .  A
N1091     Cu1099   2.077       .  S
N1092      C1093   1.345       .  A
N1092     Cu1098   2.074       .  S
C1093      C1094   1.385       .  A
C1093      H1096   1.082       .  S
C1094      C1095   1.387       .  A
C1094      C5041   1.485       .  S
C1095      H1097   1.081       .  S
Cu1098     N1101   2.075       .  S
Cu1099     N1109   2.078       .  S
Cu1100     N1102   2.071       .  S
Cu1100     N1108   2.071       .  S
N1101      N1102   1.322       .  A
N1101      C1105   1.345       .  A
N1102      C1103   1.344       .  A
C1103      C1104   1.382       .  A
C1103      H1106   1.082       .  S
C1104      C1105   1.383       .  A
C1105      H1107   1.082       .  S
N1108      N1109   1.321       .  A
N1108      C1112   1.345       .  A
N1109      C1110   1.343       .  A
C1110      C1111   1.389       .  A
C1110      H1113   1.082       .  S
C1111      C1112   1.388       .  A
C1111      C5032   1.489       .  S
C1112      H1114   1.081       .  S
C1115      C1116   1.372   1_556  D
C1115      C5068   1.501       .  S
C1115      C5464   1.502       .  S
C1116      C5029   1.498       .  S
C1116      C5053   1.493       .  S
N1117      N1118   1.322       .  A
N1117      C1121   1.345       .  A
N1117     Cu1125   2.077       .  S
N1118      C1119   1.343       .  A
N1118     Cu1124   2.069       .  S
C1119      C1120   1.385       .  A
C1119      H1122   1.082       .  S
C1120      C1121   1.387       .  A
C1120      C5224   1.485       .  S
C1121      H1123   1.081       .  S
Cu1124     N1127   2.069       .  S
Cu1125     N1135   2.076       .  S
Cu1126     N1128   2.062       .  S
Cu1126     N1134   2.062       .  S
N1127      N1128   1.321       .  A
N1127      C1131   1.345       .  A
N1128      C1129   1.342       .  A
C1129      C1130   1.381       .  A
C1129      H1132   1.082       .  S
C1130      C1131   1.383       .  A
C1131      H1133   1.082       .  S
N1134      N1135   1.320       .  A
N1134      C1138   1.341       .  A
N1135      C1136   1.345       .  A
C1136      C1137   1.390       .  A
C1136      H1139   1.081       .  S
C1137      C1138   1.386       .  A
C1137      C5020   1.488       .  S
C1138      H1140   1.082       .  S
N1141      N1142   1.320       .  A
N1141      C1145   1.348       .  A
N1141     Cu1149   2.075       .  S
N1142      C1143   1.339       .  A
N1142     Cu1148   2.067       .  S
C1143      C1144   1.387       .  A
C1143      H1146   1.079       .  S
C1144      C1145   1.390       .  A
C1144      C4993   1.489       .  S
C1145      H1147   1.082       .  S
Cu1148     N1151   2.068       .  S
Cu1149     N1159   2.076       .  S
Cu1150     N1152   2.065       .  S
Cu1150     N1158   2.066       .  S
N1151      N1152   1.321       .  A
N1151      C1155   1.345       .  A
N1152      C1153   1.344       .  A
C1153      C1154   1.382       .  A
C1153      H1156   1.082       .  S
C1154      C1155   1.383       .  A
C1154      C1317   1.469       .  S
C1155      H1157   1.082       .  S
N1158      N1159   1.322       .  A
N1158      C1162   1.342       .  A
N1159      C1160   1.344       .  A
C1160      C1161   1.387       .  A
C1160      H1163   1.081       .  S
C1161      C1162   1.385       .  A
C1161      C5005   1.483       .  S
C1162      H1164   1.082       .  S
N1165      N1166   1.321       .  A
N1165      C1169   1.346       .  A
N1165     Cu1173   2.071       .  S
N1166      C1167   1.341       .  A
N1166     Cu1172   2.067       .  S
C1167      C1168   1.383       .  A
C1167      H1170   1.082       .  S
C1168      C1169   1.386       .  A
C1168      C4972   1.480       .  S
C1169      H1171   1.081       .  S
Cu1172     N1175   2.067       .  S
Cu1173     N1183   2.071       .  S
Cu1174     N1176   2.070       .  S
Cu1174     N1182   2.071       .  S
N1175      N1176   1.321       .  A
N1175      C1179   1.344       .  A
N1176      C1177   1.344       .  A
C1177      C1178   1.383       .  A
C1177      H1180   1.082       .  S
C1178      C1179   1.382       .  A
C1179      H1181   1.082       .  S
N1182      N1183   1.322       .  A
N1182      C1186   1.343       .  A
N1183      C1184   1.345       .  A
C1184      C1185   1.385       .  A
C1184      H1187   1.081       .  S
C1185      C1186   1.383       .  A
C1185      C4981   1.480       .  S
C1186      H1188   1.082       .  S
C1189      C1190   1.374   1_556  D
C1189      C4996   1.495       .  S
C1189      C5428   1.496       .  S
C1190      C4969   1.498       .  S
C1190      C5017   1.503       .  S
N1191      N1192   1.321       .  A
N1191      C1195   1.345       .  A
N1191     Cu1199   2.081       .  S
N1192      C1193   1.343       .  A
N1192     Cu1198   2.064       .  S
C1193      C1194   1.385       .  A
C1193      H1196   1.080       .  S
C1194      C1195   1.388       .  A
C1194      C4960   1.486       .  S
C1195      H1197   1.082       .  S
Cu1198     N1201   2.064       .  S
Cu1199     N1209   2.081       .  S
Cu1200     N1202   2.068       .  S
Cu1200     N1208   2.068       .  S
N1201      N1202   1.321       .  A
N1201      C1205   1.343       .  A
N1202      C1203   1.344       .  A
C1203      C1204   1.383       .  A
C1203      H1206   1.082       .  S
C1204      C1205   1.382       .  A
C1205      H1207   1.082       .  S
N1208      N1209   1.322       .  A
N1208      C1212   1.342       .  A
N1209      C1210   1.347       .  A
C1210      C1211   1.388       .  A
C1210      H1213   1.082       .  S
C1211      C1212   1.384       .  A
C1211      C4945   1.483       .  S
C1212      H1214   1.082       .  S
N1215      N1216   1.323       .  A
N1215      C1219   1.342       .  A
N1215     Cu1223   2.078       .  S
N1216      C1217   1.348       .  A
N1216     Cu1222   2.081       .  S
C1217      C1218   1.388       .  A
C1217      H1220   1.081       .  S
C1218      C1219   1.386       .  A
C1218      C4936   1.487       .  S
C1219      H1221   1.082       .  S
Cu1222     N1225   2.081       .  S
Cu1223     N1233   2.077       .  S
Cu1224     N1226   2.067       .  S
Cu1224     N1232   2.067       .  S
N1225      N1226   1.322       .  A
N1225      C1229   1.346       .  A
N1226      C1227   1.344       .  A
C1227      C1228   1.381       .  A
C1227      H1230   1.082       .  S
C1228      C1229   1.385       .  A
C1229      H1231   1.082       .  S
N1232      N1233   1.320       .  A
N1232      C1236   1.341       .  A
N1233      C1234   1.348       .  A
C1234      C1235   1.390       .  A
C1234      H1237   1.081       .  S
C1235      C1236   1.386       .  A
C1235      C4924   1.488       .  S
C1236      H1238   1.082       .  S
C1239      C1240   1.369   1_554  D
C1239      C4933   1.497       .  S
C1239      C4957   1.500       .  S
C1240      C4909   1.497       .  S
C1240      C5188   1.500       .  S
C1241      C1242   1.374       .  D
C1241      C4921   1.502       .  S
C1241      C5320   1.500       .  S
C1242      C4984   1.499       .  S
C1242      C5248   1.502       .  S
C1243      C1244   1.374       .  D
C1243      C4948   1.503       .  S
C1243      C5308   1.501       .  S
C1244      C5044   1.498       .  S
C1244      C5293   1.499       .  S
N1245      N1246   1.321       .  A
N1245      C1249   1.342       .  A
N1245     Cu1253   2.072       .  S
N1246      C1247   1.347       .  A
N1246     Cu1252   2.074       .  S
C1247      C1248   1.387       .  A
C1247      H1250   1.082       .  S
C1248      C1249   1.385       .  A
C1248      C4912   1.482       .  S
C1249      H1251   1.082       .  S
Cu1252     N1255   2.074       .  S
Cu1253     N1263   2.072       .  S
Cu1254     N1256   2.074       .  S
Cu1254     N1262   2.074       .  S
N1255      N1256   1.323       .  A
N1255      C1259   1.344       .  A
N1256      C1257   1.345       .  A
C1257      C1258   1.382       .  A
C1257      H1260   1.082       .  S
C1258      C1259   1.382       .  A
C1258      C1293   1.470       .  S
C1259      H1261   1.082       .  S
N1262      N1263   1.321       .  A
N1262      C1266   1.345       .  A
N1263      C1264   1.345       .  A
C1264      C1265   1.386       .  A
C1264      H1267   1.081       .  S
C1265      C1266   1.385       .  A
C1265      C4897   1.483       .  S
C1266      H1268   1.082       .  S
C1269      C1270   1.367       .  D
C1269      C5080   1.493       .  S
C1269      C5176   1.497       .  S
C1270      C4900   1.498       .  S
C1270      C5104   1.495       .  S
C1271      C1272   1.366       .  D
C1271      C5092   1.494       .  S
C1271      C5200   1.494       .  S
C1272      C5008   1.494       .  S
C1272      C5128   1.499       .  S
N1273      N1274   1.322       .  A
N1273      C1277   1.344       .  A
N1273     Cu1281   2.072       .  S
N1274      C1275   1.345       .  A
N1274     Cu1280   2.071       .  S
C1275      C1276   1.382       .  A
C1275      H1278   1.082       .  S
C1276      C1277   1.382       .  A
C1276      C2280   1.469       .  S
C1277      H1279   1.082       .  S
Cu1280     N1283   2.071       .  S
Cu1281     N1291   2.071       .  S
Cu1282     N1284   2.069       .  S
Cu1282     N1290   2.069       .  S
N1283      N1284   1.322       .  A
N1283      C1287   1.345       .  A
N1284      C1285   1.344       .  A
C1285      C1286   1.382       .  A
C1285      H1288   1.082       .  S
C1286      C1287   1.383       .  A
C1286      C2678   1.469       .  S
C1287      H1289   1.082       .  S
N1290      N1291   1.322       .  A
N1290      C1294   1.344       .  A
N1291      C1292   1.345       .  A
C1292      C1293   1.383       .  A
C1292      H1295   1.082       .  S
C1293      C1294   1.382       .  A
C1294      H1296   1.082       .  S
N1297      N1298   1.322       .  A
N1297      C1301   1.344       .  A
N1297     Cu1305   2.071       .  S
N1298      C1299   1.345       .  A
N1298     Cu1304   2.068       .  S
C1299      C1300   1.382       .  A
C1299      H1302   1.082       .  S
C1300      C1301   1.383       .  A
C1300      C1752   1.470       .  S
C1301      H1303   1.082       .  S
Cu1304     N1307   2.069       .  S
Cu1305     N1315   2.071       .  S
Cu1306     N1308   2.072       .  S
Cu1306     N1314   2.072       .  S
N1307      N1308   1.322       .  A
N1307      C1311   1.343       .  A
N1308      C1309   1.346       .  A
C1309      C1310   1.383       .  A
C1309      H1312   1.082       .  S
C1310      C1311   1.382       .  A
C1310      C2606   1.469       .  S
C1311      H1313   1.082       .  S
N1314      N1315   1.322       .  A
N1314      C1318   1.345       .  A
N1315      C1316   1.344       .  A
C1316      C1317   1.382       .  A
C1316      H1319   1.082       .  S
C1317      C1318   1.382       .  A
C1318      H1320   1.082       .  S
N1321      N1322   1.320       .  A
N1321      C1325   1.347       .  A
N1321     Cu1329   2.085       .  S
N1322      C1323   1.340       .  A
N1322     Cu1328   2.062       .  S
C1323      C1324   1.386       .  A
C1323      H1326   1.080       .  S
C1324      C1325   1.392       .  A
C1324      C4885   1.491       .  S
C1325      H1327   1.081       .  S
Cu1328     N1331   2.061       .  S
Cu1329     N1339   2.085       .  S
Cu1330     N1332   2.068       .  S
Cu1330     N1338   2.068       .  S
N1331      N1332   1.320       .  A
N1331      C1335   1.344       .  A
N1332      C1333   1.344       .  A
C1333      C1334   1.384       .  A
C1333      H1336   1.082       .  S
C1334      C1335   1.382       .  A
C1335      H1337   1.082       .  S
N1338      N1339   1.321       .  A
N1338      C1342   1.342       .  A
N1339      C1340   1.346       .  A
C1340      C1341   1.392       .  A
C1340      H1343   1.081       .  S
C1341      C1342   1.388       .  A
C1341      C4873   1.494       .  S
C1342      H1344   1.079       .  S
N1345      N1346   1.321       .  A
N1345      C1349   1.347       .  A
N1345     Cu1353   2.084       .  S
N1346      C1347   1.344       .  A
N1346     Cu1352   2.078       .  S
C1347      C1348   1.389       .  A
C1347      H1350   1.082       .  S
C1348      C1349   1.391       .  A
C1348      C4849   1.493       .  S
C1349      H1351   1.081       .  S
Cu1352     N1355   2.077       .  S
Cu1353     N1363   2.083       .  S
Cu1354     N1356   2.077       .  S
Cu1354     N1362   2.077       .  S
N1355      N1356   1.322       .  A
N1355      C1359   1.346       .  A
N1356      C1357   1.346       .  A
C1357      C1358   1.384       .  A
C1357      H1360   1.082       .  S
C1358      C1359   1.384       .  A
C1359      H1361   1.082       .  S
N1362      N1363   1.320       .  A
N1362      C1366   1.343       .  A
N1363      C1364   1.346       .  A
C1364      C1365   1.394       .  A
C1364      H1367   1.078       .  S
C1365      C1366   1.392       .  A
C1365      C4861   1.502       .  S
C1366      H1368   1.081       .  S
N1369      N1370   1.321       .  A
N1369      C1373   1.347       .  A
N1369     Cu1377   2.084       .  S
N1370      C1371   1.344       .  A
N1370     Cu1376   2.068       .  S
C1371      C1372   1.385       .  A
C1371      H1374   1.081       .  S
C1372      C1373   1.388       .  A
C1372      C4837   1.485       .  S
C1373      H1375   1.082       .  S
Cu1376     N1379   2.068       .  S
Cu1377     N1387   2.084       .  S
Cu1378     N1380   2.071       .  S
Cu1378     N1386   2.071       .  S
N1379      N1380   1.322       .  A
N1379      C1383   1.344       .  A
N1380      C1381   1.345       .  A
C1381      C1382   1.383       .  A
C1381      H1384   1.082       .  S
C1382      C1383   1.382       .  A
C1383      H1385   1.082       .  S
N1386      N1387   1.321       .  A
N1386      C1390   1.345       .  A
N1387      C1388   1.344       .  A
C1388      C1389   1.391       .  A
C1388      H1391   1.081       .  S
C1389      C1390   1.389       .  A
C1389      C4828   1.495       .  S
C1390      H1392   1.080       .  S
N1393      N1394   1.321       .  A
N1393      C1397   1.343       .  A
N1393     Cu1401   2.069       .  S
N1394      C1395   1.344       .  A
N1394     Cu1400   2.070       .  S
C1395      C1396   1.385       .  A
C1395      H1398   1.082       .  S
C1396      C1397   1.385       .  A
C1396      C4801   1.482       .  S
C1397      H1399   1.081       .  S
Cu1400     N1403   2.070       .  S
Cu1401     N1411   2.069       .  S
Cu1402     N1404   2.076       .  S
Cu1402     N1410   2.076       .  S
N1403      N1404   1.323       .  A
N1403      C1407   1.344       .  A
N1404      C1405   1.345       .  A
C1405      C1406   1.383       .  A
C1405      H1408   1.082       .  S
C1406      C1407   1.382       .  A
C1407      H1409   1.082       .  S
N1410      N1411   1.322       .  A
N1410      C1414   1.345       .  A
N1411      C1412   1.344       .  A
C1412      C1413   1.383       .  A
C1412      H1415   1.082       .  S
C1413      C1414   1.386       .  A
C1413      C4813   1.479       .  S
C1414      H1416   1.082       .  S
N1417      N1418   1.321       .  A
N1417      C1421   1.346       .  A
N1417     Cu1425   2.078       .  S
N1418      C1419   1.343       .  A
N1418     Cu1424   2.067       .  S
C1419      C1420   1.386       .  A
C1419      H1422   1.081       .  S
C1420      C1421   1.388       .  A
C1420      C4777   1.486       .  S
C1421      H1423   1.082       .  S
Cu1424     N1427   2.067       .  S
Cu1425     N1435   2.079       .  S
Cu1426     N1428   2.074       .  S
Cu1426     N1434   2.074       .  S
N1427      N1428   1.322       .  A
N1427      C1431   1.344       .  A
N1428      C1429   1.346       .  A
C1429      C1430   1.384       .  A
C1429      H1432   1.082       .  S
C1430      C1431   1.382       .  A
C1431      H1433   1.082       .  S
N1434      N1435   1.322       .  A
N1434      C1438   1.344       .  A
N1435      C1436   1.345       .  A
C1436      C1437   1.387       .  A
C1436      H1439   1.082       .  S
C1437      C1438   1.386       .  A
C1437      C4789   1.485       .  S
C1438      H1440   1.081       .  S
N1441      N1442   1.322       .  A
N1441      C1445   1.344       .  A
N1441     Cu1449   2.076       .  S
N1442      C1443   1.345       .  A
N1442     Cu1448   2.075       .  S
C1443      C1444   1.384       .  A
C1443      H1446   1.082       .  S
C1444      C1445   1.385       .  A
C1444      C4765   1.482       .  S
C1445      H1447   1.081       .  S
Cu1448     N1451   2.074       .  S
Cu1449     N1459   2.075       .  S
Cu1450     N1452   2.068       .  S
Cu1450     N1458   2.068       .  S
N1451      N1452   1.322       .  A
N1451      C1455   1.346       .  A
N1452      C1453   1.344       .  A
C1453      C1454   1.382       .  A
C1453      H1456   1.082       .  S
C1454      C1455   1.384       .  A
C1455      H1457   1.082       .  S
N1458      N1459   1.321       .  A
N1458      C1462   1.342       .  A
N1459      C1460   1.346       .  A
C1460      C1461   1.388       .  A
C1460      H1463   1.081       .  S
C1461      C1462   1.385       .  A
C1461      C4756   1.484       .  S
C1462      H1464   1.082       .  S
N1465      N1466   1.322       .  A
N1465      C1469   1.343       .  A
N1465     Cu1473   2.075       .  S
N1466      C1467   1.348       .  A
N1466     Cu1472   2.080       .  S
C1467      C1468   1.388       .  A
C1467      H1470   1.082       .  S
C1468      C1469   1.385       .  A
C1468      C4741   1.485       .  S
C1469      H1471   1.082       .  S
Cu1472     N1475   2.080       .  S
Cu1473     N1483   2.075       .  S
Cu1474     N1476   2.070       .  S
Cu1474     N1482   2.070       .  S
N1475      N1476   1.323       .  A
N1475      C1479   1.345       .  A
N1476      C1477   1.344       .  A
C1477      C1478   1.381       .  A
C1477      H1480   1.082       .  S
C1478      C1479   1.383       .  A
C1479      H1481   1.082       .  S
N1482      N1483   1.321       .  A
N1482      C1486   1.346       .  A
N1483      C1484   1.344       .  A
C1484      C1485   1.386       .  A
C1484      H1487   1.082       .  S
C1485      C1486   1.385       .  A
C1485      C4732   1.481       .  S
C1486      H1488   1.082       .  S
C1489      C1490   1.373   1_545  D
C1489      C4729   1.500       .  S
C1489      C4753   1.502       .  S
C1490      C4780   1.498       .  S
C1490      C4804   1.497       .  S
N1491      N1492   1.320       .  A
N1491      C1495   1.344       .  A
N1491     Cu1499   2.078       .  S
N1492      C1493   1.343       .  A
N1492     Cu1498   2.054       .  S
C1493      C1494   1.383       .  A
C1493      H1496   1.082       .  S
C1494      C1495   1.388       .  A
C1494      C4717   1.481       .  S
C1495      H1497   1.081       .  S
Cu1498     N1501   2.054       .  S
Cu1499     N1509   2.078       .  S
Cu1500     N1502   2.074       .  S
Cu1500     N1508   2.074       .  S
N1501      N1502   1.321       .  A
N1501      C1505   1.341       .  A
N1502      C1503   1.345       .  A
C1503      C1504   1.384       .  A
C1503      H1506   1.082       .  S
C1504      C1505   1.378       .  A
C1505      H1507   1.082       .  S
N1508      N1509   1.322       .  A
N1508      C1512   1.344       .  A
N1509      C1510   1.345       .  A
C1510      C1511   1.387       .  A
C1510      H1513   1.081       .  S
C1511      C1512   1.385       .  A
C1511      C4705   1.485       .  S
C1512      H1514   1.082       .  S
N1515      N1516   1.322       .  A
N1515      C1519   1.346       .  A
N1515     Cu1523   2.083       .  S
N1516      C1517   1.343       .  A
N1516     Cu1522   2.068       .  S
C1517      C1518   1.384       .  A
C1517      H1520   1.081       .  S
C1518      C1519   1.387       .  A
C1518      C4693   1.484       .  S
C1519      H1521   1.082       .  S
Cu1522     N1525   2.067       .  S
Cu1523     N1533   2.083       .  S
Cu1524     N1526   2.062       .  S
Cu1524     N1532   2.062       .  S
N1525      N1526   1.321       .  A
N1525      C1529   1.344       .  A
N1526      C1527   1.344       .  A
C1527      C1528   1.382       .  A
C1527      H1530   1.082       .  S
C1528      C1529   1.383       .  A
C1529      H1531   1.082       .  S
N1532      N1533   1.321       .  A
N1532      C1536   1.342       .  A
N1533      C1534   1.347       .  A
C1534      C1535   1.388       .  A
C1534      H1537   1.082       .  S
C1535      C1536   1.383       .  A
C1535      C4681   1.484       .  S
C1536      H1538   1.081       .  S
N1539      N1540   1.321       .  A
N1539      C1543   1.344       .  A
N1539     Cu1547   2.078       .  S
N1540      C1541   1.347       .  A
N1540     Cu1546   2.077       .  S
C1541      C1542   1.388       .  A
C1541      H1544   1.082       .  S
C1542      C1543   1.388       .  A
C1542      C4669   1.490       .  S
C1543      H1545   1.081       .  S
Cu1546     N1549   2.077       .  S
Cu1547     N1557   2.079       .  S
Cu1548     N1550   2.084       .  S
Cu1548     N1556   2.083       .  S
N1549      N1550   1.324       .  A
N1549      C1553   1.346       .  A
N1550      C1551   1.346       .  A
C1551      C1552   1.384       .  A
C1551      H1554   1.082       .  S
C1552      C1553   1.382       .  A
C1553      H1555   1.082       .  S
N1556      N1557   1.322       .  A
N1556      C1560   1.349       .  A
N1557      C1558   1.343       .  A
C1558      C1559   1.386       .  A
C1558      H1561   1.082       .  S
C1559      C1560   1.389       .  A
C1559      C4657   1.487       .  S
C1560      H1562   1.082       .  S
C1563      C1564   1.376       .  D
C1563      C4696   1.502       .  S
C1563      C4744   1.505       .  S
C1564      C4645   1.503       .  S
C1564      C4660   1.504       .  S
C1565      C1566   1.370       .  D
C1565      C4684   1.497       .  S
C1565      C4768   1.500       .  S
C1566      C4633   1.499       .  S
C1566      C4708   1.501       .  S
N1567      N1568   1.321       .  A
N1567      C1571   1.343       .  A
N1567     Cu1575   2.082       .  S
N1568      C1569   1.344       .  A
N1568     Cu1574   2.066       .  S
C1569      C1570   1.387       .  A
C1569      H1572   1.080       .  S
C1570      C1571   1.391       .  A
C1570      C4609   1.492       .  S
C1571      H1573   1.081       .  S
Cu1574     N1577   2.065       .  S
Cu1575     N1585   2.082       .  S
Cu1576     N1578   2.060       .  S
Cu1576     N1584   2.061       .  S
N1577      N1578   1.320       .  A
N1577      C1581   1.344       .  A
N1578      C1579   1.343       .  A
C1579      C1580   1.381       .  A
C1579      H1582   1.082       .  S
C1580      C1581   1.383       .  A
C1581      H1583   1.082       .  S
N1584      N1585   1.321       .  A
N1584      C1588   1.340       .  A
N1585      C1586   1.347       .  A
C1586      C1587   1.389       .  A
C1586      H1589   1.081       .  S
C1587      C1588   1.384       .  A
C1587      C4621   1.483       .  S
C1588      H1590   1.082       .  S
N1591      N1592   1.322       .  A
N1591      C1595   1.346       .  A
N1591     Cu1599   2.089       .  S
N1592      C1593   1.344       .  A
N1592     Cu1598   2.063       .  S
C1593      C1594   1.382       .  A
C1593      H1596   1.082       .  S
C1594      C1595   1.389       .  A
C1594      C4585   1.483       .  S
C1595      H1597   1.082       .  S
Cu1598     N1601   2.062       .  S
Cu1599     N1609   2.089       .  S
Cu1600     N1602   2.064       .  S
Cu1600     N1608   2.065       .  S
N1601      N1602   1.320       .  A
N1601      C1605   1.343       .  A
N1602      C1603   1.344       .  A
C1603      C1604   1.382       .  A
C1603      H1606   1.082       .  S
C1604      C1605   1.382       .  A
C1605      H1607   1.082       .  S
N1608      N1609   1.322       .  A
N1608      C1612   1.341       .  A
N1609      C1610   1.349       .  A
C1610      C1611   1.389       .  A
C1610      H1613   1.082       .  S
C1611      C1612   1.382       .  A
C1611      C4597   1.483       .  S
C1612      H1614   1.082       .  S
N1615      N1616   1.321       .  A
N1615      C1619   1.346       .  A
N1615     Cu1623   2.085       .  S
N1616      C1617   1.342       .  A
N1616     Cu1622   2.068       .  S
C1617      C1618   1.386       .  A
C1617      H1620   1.082       .  S
C1618      C1619   1.391       .  A
C1618      C4561   1.491       .  S
C1619      H1621   1.080       .  S
Cu1622     N1625   2.068       .  S
Cu1623     N1633   2.085       .  S
Cu1624     N1626   2.069       .  S
Cu1624     N1632   2.069       .  S
N1625      N1626   1.321       .  A
N1625      C1629   1.345       .  A
N1626      C1627   1.344       .  A
C1627      C1628   1.383       .  A
C1627      H1630   1.082       .  S
C1628      C1629   1.383       .  A
C1629      H1631   1.082       .  S
N1632      N1633   1.322       .  A
N1632      C1636   1.342       .  A
N1633      C1634   1.349       .  A
C1634      C1635   1.389       .  A
C1634      H1637   1.082       .  S
C1635      C1636   1.385       .  A
C1635      C4573   1.486       .  S
C1636      H1638   1.082       .  S
C1639      C1640   1.371       .  D
C1639      C4564   1.501       .  S
C1639      C4864   1.501       .  S
C1640      C4600   1.504       .  S
C1640      C4792   1.499       .  S
C1641      C1642   1.373       .  D
C1641      C4612   1.493       .  S
C1641      C4876   1.500       .  S
C1642      C4588   1.509       .  S
C1642      C4816   1.499       .  S
N1643      N1644   1.322       .  A
N1643      C1647   1.346       .  A
N1643     Cu1651   2.080       .  S
N1644      C1645   1.344       .  A
N1644     Cu1650   2.070       .  S
C1645      C1646   1.385       .  A
C1645      H1648   1.082       .  S
C1646      C1647   1.387       .  A
C1646      C4549   1.483       .  S
C1647      H1649   1.082       .  S
Cu1650     N1653   2.069       .  S
Cu1651     N1661   2.080       .  S
Cu1652     N1654   2.071       .  S
Cu1652     N1660   2.071       .  S
N1653      N1654   1.322       .  A
N1653      C1657   1.344       .  A
N1654      C1655   1.345       .  A
C1655      C1656   1.383       .  A
C1655      H1658   1.082       .  S
C1656      C1657   1.383       .  A
C1657      H1659   1.082       .  S
N1660      N1661   1.322       .  A
N1660      C1664   1.344       .  A
N1661      C1662   1.346       .  A
C1662      C1663   1.387       .  A
C1662      H1665   1.081       .  S
C1663      C1664   1.383       .  A
C1663      C4537   1.483       .  S
C1664      H1666   1.082       .  S
N1667      N1668   1.321       .  A
N1667      C1671   1.346       .  A
N1667     Cu1675   2.080       .  S
N1668      C1669   1.341       .  A
N1668     Cu1674   2.069       .  S
C1669      C1670   1.388       .  A
C1669      H1672   1.082       .  S
C1670      C1671   1.391       .  A
C1670      C4525   1.493       .  S
C1671      H1673   1.079       .  S
Cu1674     N1677   2.069       .  S
Cu1675     N1685   2.080       .  S
Cu1676     N1678   2.066       .  S
Cu1676     N1684   2.067       .  S
N1677      N1678   1.321       .  A
N1677      C1681   1.346       .  A
N1678      C1679   1.343       .  A
C1679      C1680   1.382       .  A
C1679      H1682   1.082       .  S
C1680      C1681   1.384       .  A
C1681      H1683   1.082       .  S
N1684      N1685   1.321       .  A
N1684      C1688   1.341       .  A
N1685      C1686   1.347       .  A
C1686      C1687   1.389       .  A
C1686      H1689   1.081       .  S
C1687      C1688   1.385       .  A
C1687      C4513   1.486       .  S
C1688      H1690   1.082       .  S
N1691      N1692   1.323       .  A
N1691      C1695   1.346       .  A
N1691     Cu1699   2.088       .  S
N1692      C1693   1.345       .  A
N1692     Cu1698   2.071       .  S
C1693      C1694   1.382       .  A
C1693      H1696   1.082       .  S
C1694      C1695   1.386       .  A
C1694      C4489   1.475       .  S
C1695      H1697   1.082       .  S
Cu1698     N1701   2.071       .  S
Cu1699     N1709   2.087       .  S
Cu1700     N1702   2.072       .  S
Cu1700     N1708   2.072       .  S
N1701      N1702   1.321       .  A
N1701      C1705   1.345       .  A
N1702      C1703   1.345       .  A
C1703      C1704   1.383       .  A
C1703      H1706   1.082       .  S
C1704      C1705   1.383       .  A
C1704      C2524   1.471       .  S
C1705      H1707   1.082       .  S
N1708      N1709   1.321       .  A
N1708      C1712   1.342       .  A
N1709      C1710   1.348       .  A
C1710      C1711   1.391       .  A
C1710      H1713   1.081       .  S
C1711      C1712   1.387       .  A
C1711      C4501   1.492       .  S
C1712      H1714   1.082       .  S
N1715      N1716   1.321       .  A
N1715      C1719   1.345       .  A
N1715     Cu1723   2.074       .  S
N1716      C1717   1.343       .  A
N1716     Cu1722   2.064       .  S
C1717      C1718   1.385       .  A
C1717      H1720   1.081       .  S
C1718      C1719   1.386       .  A
C1718      C4636   1.482       .  S
C1719      H1721   1.082       .  S
Cu1722     N1725   2.064       .  S
Cu1723     N1733   2.075       .  S
Cu1724     N1726   2.075       .  S
Cu1724     N1732   2.075       .  S
N1725      N1726   1.322       .  A
N1725      C1729   1.343       .  A
N1726      C1727   1.345       .  A
C1727      C1728   1.384       .  A
C1727      H1730   1.082       .  S
C1728      C1729   1.381       .  A
C1729      H1731   1.082       .  S
N1732      N1733   1.322       .  A
N1732      C1736   1.345       .  A
N1733      C1734   1.344       .  A
C1734      C1735   1.385       .  A
C1734      H1737   1.082       .  S
C1735      C1736   1.386       .  A
C1735      C4477   1.482       .  S
C1736      H1738   1.082       .  S
N1739      N1740   1.321       .  A
N1739      C1743   1.344       .  A
N1739     Cu1747   2.079       .  S
N1740      C1741   1.345       .  A
N1740     Cu1746   2.075       .  S
C1741      C1742   1.387       .  A
C1741      H1744   1.082       .  S
C1742      C1743   1.388       .  A
C1742      C4453   1.490       .  S
C1743      H1745   1.080       .  S
Cu1746     N1749   2.075       .  S
Cu1747     N1757   2.079       .  S
Cu1748     N1750   2.068       .  S
Cu1748     N1756   2.068       .  S
N1749      N1750   1.322       .  A
N1749      C1753   1.345       .  A
N1750      C1751   1.344       .  A
C1751      C1752   1.382       .  A
C1751      H1754   1.082       .  S
C1752      C1753   1.384       .  A
C1753      H1755   1.082       .  S
N1756      N1757   1.321       .  A
N1756      C1760   1.344       .  A
N1757      C1758   1.346       .  A
C1758      C1759   1.387       .  A
C1758      H1761   1.081       .  S
C1759      C1760   1.383       .  A
C1759      C4465   1.482       .  S
C1760      H1762   1.082       .  S
N1763      N1764   1.322       .  A
N1763      C1767   1.345       .  A
N1763     Cu1771   2.074       .  S
N1764      C1765   1.345       .  A
N1764     Cu1770   2.076       .  S
C1765      C1766   1.386       .  A
C1765      H1768   1.082       .  S
C1766      C1767   1.384       .  A
C1766      C4441   1.481       .  S
C1767      H1769   1.082       .  S
Cu1770     N1773   2.075       .  S
Cu1771     N1781   2.074       .  S
Cu1772     N1774   2.069       .  S
Cu1772     N1780   2.069       .  S
N1773      N1774   1.322       .  A
N1773      C1777   1.346       .  A
N1774      C1775   1.344       .  A
C1775      C1776   1.382       .  A
C1775      H1778   1.082       .  S
C1776      C1777   1.384       .  A
C1777      H1779   1.082       .  S
N1780      N1781   1.321       .  A
N1780      C1784   1.343       .  A
N1781      C1782   1.345       .  A
C1782      C1783   1.387       .  A
C1782      H1785   1.081       .  S
C1783      C1784   1.386       .  A
C1783      C4429   1.483       .  S
C1784      H1786   1.082       .  S
C1787      C1788   1.369   1_565  D
C1787      C4456   1.495       .  S
C1787      C4888   1.490       .  S
C1788      C4432   1.499       .  S
C1788      C4480   1.501       .  S
N1789      N1790   1.322       .  A
N1789      C1793   1.346       .  A
N1789     Cu1797   2.079       .  S
N1790      C1791   1.345       .  A
N1790     Cu1796   2.077       .  S
C1791      C1792   1.387       .  A
C1791      H1794   1.081       .  S
C1792      C1793   1.388       .  A
C1792      C4405   1.488       .  S
C1793      H1795   1.082       .  S
Cu1796     N1799   2.077       .  S
Cu1797     N1807   2.080       .  S
Cu1798     N1800   2.076       .  S
Cu1798     N1806   2.076       .  S
N1799      N1800   1.322       .  A
N1799      C1803   1.346       .  A
N1800      C1801   1.345       .  A
C1801      C1802   1.384       .  A
C1801      H1804   1.082       .  S
C1802      C1803   1.384       .  A
C1802      C2548   1.473       .  S
C1803      H1805   1.082       .  S
N1806      N1807   1.322       .  A
N1806      C1810   1.346       .  A
N1807      C1808   1.345       .  A
C1808      C1809   1.387       .  A
C1808      H1811   1.082       .  S
C1809      C1810   1.387       .  A
C1809      C4417   1.485       .  S
C1810      H1812   1.082       .  S
N1813      N1814   1.321       .  A
N1813      C1817   1.346       .  A
N1813     Cu1821   2.085       .  S
N1814      C1815   1.344       .  A
N1814     Cu1820   2.068       .  S
C1815      C1816   1.386       .  A
C1815      H1818   1.081       .  S
C1816      C1817   1.388       .  A
C1816      C4648   1.487       .  S
C1817      H1819   1.082       .  S
Cu1820     N1823   2.068       .  S
Cu1821     N1831   2.085       .  S
Cu1822     N1824   2.072       .  S
Cu1822     N1830   2.073       .  S
N1823      N1824   1.322       .  A
N1823      C1827   1.344       .  A
N1824      C1825   1.345       .  A
C1825      C1826   1.383       .  A
C1825      H1828   1.082       .  S
C1826      C1827   1.382       .  A
C1827      H1829   1.082       .  S
N1830      N1831   1.323       .  A
N1830      C1834   1.345       .  A
N1831      C1832   1.346       .  A
C1832      C1833   1.385       .  A
C1832      H1835   1.082       .  S
C1833      C1834   1.382       .  A
C1833      C4393   1.475       .  S
C1834      H1836   1.082       .  S
N1837      N1838   1.321       .  A
N1837      C1841   1.347       .  A
N1837     Cu1845   2.087       .  S
N1838      C1839   1.340       .  A
N1838     Cu1844   2.066       .  S
C1839      C1840   1.387       .  A
C1839      H1842   1.079       .  S
C1840      C1841   1.393       .  A
C1840      C4381   1.495       .  S
C1841      H1843   1.081       .  S
Cu1844     N1847   2.065       .  S
Cu1845     N1855   2.087       .  S
Cu1846     N1848   2.073       .  S
Cu1846     N1854   2.074       .  S
N1847      N1848   1.320       .  A
N1847      C1851   1.345       .  A
N1848      C1849   1.345       .  A
C1849      C1850   1.385       .  A
C1849      H1852   1.082       .  S
C1850      C1851   1.383       .  A
C1851      H1853   1.082       .  S
N1854      N1855   1.321       .  A
N1854      C1858   1.341       .  A
N1855      C1856   1.349       .  A
C1856      C1857   1.392       .  A
C1856      H1859   1.082       .  S
C1857      C1858   1.388       .  A
C1857      C4369   1.492       .  S
C1858      H1860   1.080       .  S
C1861      C1862   1.392   1_565  D
C1861      C4408   1.510       .  S
C1861      C4852   1.496       .  S
C1862      C4372   1.495       .  S
C1862      C4396   1.549       .  S
N1863      N1864   1.319       .  A
N1863      C1867   1.343       .  A
N1863     Cu1871   2.072       .  S
N1864      C1865   1.343       .  A
N1864     Cu1870   2.070       .  S
C1865      C1866   1.392       .  A
C1865      H1868   1.078       .  S
C1866      C1867   1.393       .  A
C1866      C4345   1.497       .  S
C1867      H1869   1.080       .  S
Cu1870     N1873   2.071       .  S
Cu1871     N1881   2.073       .  S
Cu1872     N1874   2.077       .  S
Cu1872     N1880   2.077       .  S
N1873      N1874   1.323       .  A
N1873      C1877   1.345       .  A
N1874      C1875   1.345       .  A
C1875      C1876   1.383       .  A
C1875      H1878   1.082       .  S
C1876      C1877   1.382       .  A
C1877      H1879   1.082       .  S
N1880      N1881   1.317       .  A
N1880      C1884   1.344       .  A
N1881      C1882   1.342       .  A
C1882      C1883   1.397       .  A
C1882      H1885   1.080       .  S
C1883      C1884   1.397       .  A
C1883      C4357   1.511       .  S
C1884      H1886   1.074       .  S
N1887      N1888   1.322       .  A
N1887      C1891   1.344       .  A
N1887     Cu1895   2.073       .  S
N1888      C1889   1.344       .  A
N1888     Cu1894   2.074       .  S
C1889      C1890   1.386       .  A
C1889      H1892   1.082       .  S
C1890      C1891   1.387       .  A
C1890      C4321   1.486       .  S
C1891      H1893   1.081       .  S
Cu1894     N1897   2.074       .  S
Cu1895     N1905   2.073       .  S
Cu1896     N1898   2.076       .  S
Cu1896     N1904   2.076       .  S
N1897      N1898   1.322       .  A
N1897      C1901   1.346       .  A
N1898      C1899   1.345       .  A
C1899      C1900   1.383       .  A
C1899      H1902   1.082       .  S
C1900      C1901   1.383       .  A
C1901      H1903   1.082       .  S
N1904      N1905   1.321       .  A
N1904      C1908   1.344       .  A
N1905      C1906   1.345       .  A
C1906      C1907   1.387       .  A
C1906      H1909   1.082       .  S
C1907      C1908   1.388       .  A
C1907      C4333   1.489       .  S
C1908      H1910   1.080       .  S
C1911      C1912   1.386   1_545  D
C1911      C4336   1.498       .  S
C1911      C4360   1.507       .  S
C1912      C4492   1.544       .  S
C1912      C4528   1.490       .  S
C1913      C1914   1.371       .  D
C1913      C4348   1.497       .  S
C1913      C4825   1.495       .  S
C1914      C4444   1.501       .  S
C1914      C4720   1.506       .  S
C1915      C1916   1.372       .  D
C1915      C4324   1.499       .  S
C1915      C4840   1.499       .  S
C1916      C4384   1.495       .  S
C1916      C4672   1.498       .  S
C1917      C1918   1.371       .  D
C1917      C4468   1.500       .  S
C1917      C4624   1.496       .  S
C1918      C4516   1.499       .  S
C1918      C4552   1.499       .  S
C1919      C1920   1.373       .  D
C1919      C4420   1.499       .  S
C1919      C4576   1.502       .  S
C1920      C4504   1.501       .  S
C1920      C4540   1.501       .  S
N1921      N1922   1.322       .  A
N1921      C1925   1.345       .  A
N1921     Cu1929   2.079       .  S
N1922      C1923   1.344       .  A
N1922     Cu1928   2.075       .  S
C1923      C1924   1.386       .  A
C1923      H1926   1.082       .  S
C1924      C1925   1.388       .  A
C1924      C4309   1.487       .  S
C1925      H1927   1.081       .  S
Cu1928     N1931   2.074       .  S
Cu1929     N1939   2.079       .  S
Cu1930     N1932   2.077       .  S
Cu1930     N1938   2.077       .  S
N1931      N1932   1.322       .  A
N1931      C1935   1.346       .  A
N1932      C1933   1.345       .  A
C1933      C1934   1.384       .  A
C1933      H1936   1.082       .  S
C1934      C1935   1.384       .  A
C1935      H1937   1.082       .  S
N1938      N1939   1.321       .  A
N1938      C1942   1.344       .  A
N1939      C1940   1.347       .  A
C1940      C1941   1.389       .  A
C1940      H1943   1.081       .  S
C1941      C1942   1.388       .  A
C1941      C4297   1.489       .  S
C1942      H1944   1.082       .  S
N1945      N1946   1.321       .  A
N1945      C1949   1.345       .  A
N1945     Cu1953   2.073       .  S
N1946      C1947   1.344       .  A
N1946     Cu1952   2.064       .  S
C1947      C1948   1.384       .  A
C1947      H1950   1.082       .  S
C1948      C1949   1.384       .  A
C1948      C4285   1.477       .  S
C1949      H1951   1.082       .  S
Cu1952     N1955   2.064       .  S
Cu1953     N1963   2.072       .  S
Cu1954     N1956   2.075       .  S
Cu1954     N1962   2.074       .  S
N1955      N1956   1.322       .  A
N1955      C1959   1.343       .  A
N1956      C1957   1.345       .  A
C1957      C1958   1.383       .  A
C1957      H1960   1.082       .  S
C1958      C1959   1.381       .  A
C1959      H1961   1.082       .  S
N1962      N1963   1.319       .  A
N1962      C1966   1.344       .  A
N1963      C1964   1.341       .  A
C1964      C1965   1.393       .  A
C1964      H1967   1.077       .  S
C1965      C1966   1.394       .  A
C1965      C4276   1.501       .  S
C1966      H1968   1.080       .  S
N1969      N1970   1.320       .  A
N1969      C1973   1.344       .  A
N1969     Cu1977   2.076       .  S
N1970      C1971   1.344       .  A
N1970     Cu1976   2.064       .  S
C1971      C1972   1.386       .  A
C1971      H1974   1.081       .  S
C1972      C1973   1.388       .  A
C1972      C4261   1.486       .  S
C1973      H1975   1.082       .  S
Cu1976     N1979   2.064       .  S
Cu1977     N1987   2.076       .  S
Cu1978     N1980   2.076       .  S
Cu1978     N1986   2.076       .  S
N1979      N1980   1.322       .  A
N1979      C1983   1.343       .  A
N1980      C1981   1.345       .  A
C1981      C1982   1.384       .  A
C1981      H1984   1.082       .  S
C1982      C1983   1.380       .  A
C1983      H1985   1.082       .  S
N1986      N1987   1.321       .  A
N1986      C1990   1.346       .  A
N1987      C1988   1.343       .  A
C1988      C1989   1.388       .  A
C1988      H1991   1.082       .  S
C1989      C1990   1.388       .  A
C1989      C4249   1.488       .  S
C1990      H1992   1.081       .  S
N1993      N1994   1.322       .  A
N1993      C1997   1.348       .  A
N1993     Cu2001   2.084       .  S
N1994      C1995   1.341       .  A
N1994     Cu2000   2.068       .  S
C1995      C1996   1.384       .  A
C1995      H1998   1.082       .  S
C1996      C1997   1.389       .  A
C1996      C4237   1.485       .  S
C1997      H1999   1.082       .  S
Cu2000     N2003   2.067       .  S
Cu2001     N2011   2.084       .  S
Cu2002     N2004   2.076       .  S
Cu2002     N2010   2.077       .  S
N2003      N2004   1.321       .  A
N2003      C2007   1.345       .  A
N2004      C2005   1.346       .  A
C2005      C2006   1.385       .  A
C2005      H2008   1.082       .  S
C2006      C2007   1.383       .  A
C2007      H2009   1.082       .  S
N2010      N2011   1.323       .  A
N2010      C2014   1.345       .  A
N2011      C2012   1.346       .  A
C2012      C2013   1.387       .  A
C2012      H2015   1.082       .  S
C2013      C2014   1.386       .  A
C2013      C4225   1.487       .  S
C2014      H2016   1.081       .  S
N2017      N2018   1.322       .  A
N2017      C2021   1.346       .  A
N2017     Cu2025   2.080       .  S
N2018      C2019   1.343       .  A
N2018     Cu2024   2.070       .  S
C2019      C2020   1.386       .  A
C2019      H2022   1.082       .  S
C2020      C2021   1.388       .  A
C2020      C4201   1.485       .  S
C2021      H2023   1.081       .  S
Cu2024     N2027   2.070       .  S
Cu2025     N2035   2.079       .  S
Cu2026     N2028   2.068       .  S
Cu2026     N2034   2.068       .  S
N2027      N2028   1.321       .  A
N2027      C2031   1.345       .  A
N2028      C2029   1.344       .  A
C2029      C2030   1.382       .  A
C2029      H2032   1.082       .  S
C2030      C2031   1.383       .  A
C2031      H2033   1.082       .  S
N2034      N2035   1.322       .  A
N2034      C2038   1.343       .  A
N2035      C2036   1.346       .  A
C2036      C2037   1.386       .  A
C2036      H2039   1.082       .  S
C2037      C2038   1.384       .  A
C2037      C4213   1.482       .  S
C2038      H2040   1.081       .  S
N2041      N2042   1.321       .  A
N2041      C2045   1.342       .  A
N2041     Cu2049   2.071       .  S
N2042      C2043   1.347       .  A
N2042     Cu2048   2.076       .  S
C2043      C2044   1.388       .  A
C2043      H2046   1.081       .  S
C2044      C2045   1.386       .  A
C2044      C4177   1.484       .  S
C2045      H2047   1.082       .  S
Cu2048     N2051   2.076       .  S
Cu2049     N2059   2.069       .  S
Cu2050     N2052   2.067       .  S
Cu2050     N2058   2.065       .  S
N2051      N2052   1.323       .  A
N2051      C2055   1.345       .  A
N2052      C2053   1.343       .  A
C2053      C2054   1.380       .  A
C2053      H2056   1.082       .  S
C2054      C2055   1.383       .  A
C2055      H2057   1.082       .  S
N2058      N2059   1.317       .  A
N2058      C2062   1.344       .  A
N2059      C2060   1.341       .  A
C2060      C2061   1.393       .  A
C2060      H2063   1.081       .  S
C2061      C2062   1.392       .  A
C2061      C4189   1.498       .  S
C2062      H2064   1.078       .  S
C2065      C2066   1.371   1_455  D
C2065      C4180   1.498       .  S
C2065      C4204   1.500       .  S
C2066      C4228   1.503       .  S
C2066      C4252   1.498       .  S
N2067      N2068   1.321       .  A
N2067      C2071   1.346       .  A
N2067     Cu2075   2.085       .  S
N2068      C2069   1.342       .  A
N2068     Cu2074   2.059       .  S
C2069      C2070   1.384       .  A
C2069      H2072   1.081       .  S
C2070      C2071   1.389       .  A
C2070      C4153   1.486       .  S
C2071      H2073   1.082       .  S
Cu2074     N2077   2.059       .  S
Cu2075     N2085   2.085       .  S
Cu2076     N2078   2.067       .  S
Cu2076     N2084   2.067       .  S
N2077      N2078   1.321       .  A
N2077      C2081   1.342       .  A
N2078      C2079   1.344       .  A
C2079      C2080   1.383       .  A
C2079      H2082   1.082       .  S
C2080      C2081   1.380       .  A
C2081      H2083   1.082       .  S
N2084      N2085   1.322       .  A
N2084      C2088   1.344       .  A
N2085      C2086   1.346       .  A
C2086      C2087   1.388       .  A
C2086      H2089   1.082       .  S
C2087      C2088   1.385       .  A
C2087      C4165   1.486       .  S
C2088      H2090   1.081       .  S
N2091      N2092   1.321       .  A
N2091      C2095   1.343       .  A
N2091     Cu2099   2.080       .  S
N2092      C2093   1.346       .  A
N2092     Cu2098   2.070       .  S
C2093      C2094   1.387       .  A
C2093      H2096   1.081       .  S
C2094      C2095   1.388       .  A
C2094      C4141   1.486       .  S
C2095      H2097   1.082       .  S
Cu2098     N2101   2.069       .  S
Cu2099     N2109   2.079       .  S
Cu2100     N2102   2.067       .  S
Cu2100     N2108   2.067       .  S
N2101      N2102   1.322       .  A
N2101      C2105   1.343       .  A
N2102      C2103   1.345       .  A
C2103      C2104   1.382       .  A
C2103      H2106   1.082       .  S
C2104      C2105   1.382       .  A
C2105      H2107   1.082       .  S
N2108      N2109   1.318       .  A
N2108      C2112   1.340       .  A
N2109      C2110   1.345       .  A
C2110      C2111   1.396       .  A
C2110      H2113   1.076       .  S
C2111      C2112   1.395       .  A
C2111      C4129   1.506       .  S
C2112      H2114   1.080       .  S
N2115      N2116   1.318       .  A
N2115      C2119   1.338       .  A
N2115     Cu2123   2.059       .  S
N2116      C2117   1.345       .  A
N2116     Cu2122   2.061       .  S
C2117      C2118   1.389       .  A
C2117      H2120   1.080       .  S
C2118      C2119   1.387       .  A
C2118      C4117   1.486       .  S
C2119      H2121   1.081       .  S
Cu2122     N2125   2.061       .  S
Cu2123     N2133   2.059       .  S
Cu2124     N2126   2.072       .  S
Cu2124     N2132   2.071       .  S
N2125      N2126   1.323       .  A
N2125      C2129   1.342       .  A
N2126      C2127   1.344       .  A
C2127      C2128   1.382       .  A
C2127      H2130   1.082       .  S
C2128      C2129   1.379       .  A
C2129      H2131   1.082       .  S
N2132      N2133   1.320       .  A
N2132      C2136   1.343       .  A
N2133      C2134   1.343       .  A
C2134      C2135   1.383       .  A
C2134      H2137   1.081       .  S
C2135      C2136   1.386       .  A
C2135      C4105   1.479       .  S
C2136      H2138   1.082       .  S
N2139      N2140   1.322       .  A
N2139      C2143   1.345       .  A
N2139     Cu2147   2.078       .  S
N2140      C2141   1.343       .  A
N2140     Cu2146   2.068       .  S
C2141      C2142   1.384       .  A
C2141      H2144   1.082       .  S
C2142      C2143   1.387       .  A
C2142      C4093   1.482       .  S
C2143      H2145   1.082       .  S
Cu2146     N2149   2.067       .  S
Cu2147     N2157   2.077       .  S
Cu2148     N2150   2.072       .  S
Cu2148     N2156   2.072       .  S
N2149      N2150   1.321       .  A
N2149      C2153   1.344       .  A
N2150      C2151   1.345       .  A
C2151      C2152   1.384       .  A
C2151      H2154   1.082       .  S
C2152      C2153   1.382       .  A
C2153      H2155   1.082       .  S
N2156      N2157   1.319       .  A
N2156      C2160   1.341       .  A
N2157      C2158   1.346       .  A
C2158      C2159   1.393       .  A
C2158      H2161   1.081       .  S
C2159      C2160   1.391       .  A
C2159      C4081   1.499       .  S
C2160      H2162   1.077       .  S
C2163      C2164   1.372       .  D
C2163      C4096   1.504       .  S
C2163      C4216   1.499       .  S
C2164      C4069   1.499       .  S
C2164      C4132   1.496       .  S
C2165      C2166   1.373       .  D
C2165      C4084   1.501       .  S
C2165      C4192   1.494       .  S
C2166      C4057   1.507       .  S
C2166      C4108   1.499       .  S
N2167      N2168   1.318       .  A
N2167      C2171   1.343       .  A
N2167     Cu2175   2.088       .  S
N2168      C2169   1.345       .  A
N2168     Cu2174   2.071       .  S
C2169      C2170   1.395       .  A
C2169      H2172   1.076       .  S
C2170      C2171   1.399       .  A
C2170      C4033   1.510       .  S
C2171      H2173   1.080       .  S
Cu2174     N2177   2.071       .  S
Cu2175     N2185   2.088       .  S
Cu2176     N2178   2.063       .  S
Cu2176     N2184   2.062       .  S
N2177      N2178   1.322       .  A
N2177      C2181   1.344       .  A
N2178      C2179   1.344       .  A
C2179      C2180   1.381       .  A
C2179      H2182   1.082       .  S
C2180      C2181   1.383       .  A
C2181      H2183   1.082       .  S
N2184      N2185   1.318       .  A
N2184      C2188   1.344       .  A
N2185      C2186   1.343       .  A
C2186      C2187   1.398       .  A
C2186      H2189   1.080       .  S
C2187      C2188   1.391       .  A
C2187      C4045   1.504       .  S
C2188      H2190   1.077       .  S
N2191      N2192   1.323       .  A
N2191      C2195   1.348       .  A
N2191     Cu2199   2.088       .  S
N2192      C2193   1.342       .  A
N2192     Cu2198   2.069       .  S
C2193      C2194   1.383       .  A
C2193      H2196   1.081       .  S
C2194      C2195   1.388       .  A
C2194      C4009   1.484       .  S
C2195      H2197   1.082       .  S
Cu2198     N2201   2.069       .  S
Cu2199     N2209   2.088       .  S
Cu2200     N2202   2.056       .  S
Cu2200     N2208   2.057       .  S
N2201      N2202   1.320       .  A
N2201      C2205   1.345       .  A
N2202      C2203   1.342       .  A
C2203      C2204   1.380       .  A
C2203      H2206   1.082       .  S
C2204      C2205   1.384       .  A
C2205      H2207   1.082       .  S
N2208      N2209   1.321       .  A
N2208      C2212   1.343       .  A
N2209      C2210   1.345       .  A
C2210      C2211   1.390       .  A
C2210      H2213   1.082       .  S
C2211      C2212   1.383       .  A
C2211      C4021   1.485       .  S
C2212      H2214   1.081       .  S
N2215      N2216   1.321       .  A
N2215      C2219   1.345       .  A
N2215     Cu2223   2.078       .  S
N2216      C2217   1.345       .  A
N2216     Cu2222   2.073       .  S
C2217      C2218   1.387       .  A
C2217      H2220   1.081       .  S
C2218      C2219   1.388       .  A
C2218      C3997   1.486       .  S
C2219      H2221   1.082       .  S
Cu2222     N2225   2.073       .  S
Cu2223     N2233   2.078       .  S
Cu2224     N2226   2.082       .  S
Cu2224     N2232   2.082       .  S
N2225      N2226   1.323       .  A
N2225      C2229   1.345       .  A
N2226      C2227   1.346       .  A
C2227      C2228   1.385       .  A
C2227      H2230   1.082       .  S
C2228      C2229   1.382       .  A
C2229      H2231   1.082       .  S
N2232      N2233   1.322       .  A
N2232      C2236   1.347       .  A
N2233      C2234   1.345       .  A
C2234      C2235   1.386       .  A
C2234      H2237   1.081       .  S
C2235      C2236   1.386       .  A
C2235      C3985   1.485       .  S
C2236      H2238   1.082       .  S
N2239      N2240   1.322       .  A
N2239      C2243   1.348       .  A
N2239     Cu2247   2.085       .  S
N2240      C2241   1.342       .  A
N2240     Cu2246   2.075       .  S
C2241      C2242   1.387       .  A
C2241      H2244   1.082       .  S
C2242      C2243   1.390       .  A
C2242      C3961   1.491       .  S
C2243      H2245   1.081       .  S
Cu2246     N2249   2.074       .  S
Cu2247     N2257   2.085       .  S
Cu2248     N2250   2.064       .  S
Cu2248     N2256   2.064       .  S
N2249      N2250   1.321       .  A
N2249      C2253   1.346       .  A
N2250      C2251   1.343       .  A
C2251      C2252   1.382       .  A
C2251      H2254   1.082       .  S
C2252      C2253   1.384       .  A
C2253      H2255   1.082       .  S
N2256      N2257   1.322       .  A
N2256      C2260   1.344       .  A
N2257      C2258   1.345       .  A
C2258      C2259   1.388       .  A
C2258      H2261   1.082       .  S
C2259      C2260   1.384       .  A
C2259      C3973   1.484       .  S
C2260      H2262   1.081       .  S
C2263      C2264   1.368       .  D
C2263      C4000   1.497       .  S
C2263      C4240   1.499       .  S
C2264      C3964   1.497       .  S
C2264      C4312   1.497       .  S
C2265      C2266   1.375       .  D
C2265      C4012   1.504       .  S
C2265      C4273   1.499       .  S
C2266      C3988   1.503       .  S
C2266      C4264   1.505       .  S
N2267      N2268   1.321       .  A
N2267      C2271   1.344       .  A
N2267     Cu2275   2.074       .  S
N2268      C2269   1.344       .  A
N2268     Cu2274   2.070       .  S
C2269      C2270   1.387       .  A
C2269      H2272   1.081       .  S
C2270      C2271   1.386       .  A
C2270      C3949   1.486       .  S
C2271      H2273   1.082       .  S
Cu2274     N2277   2.070       .  S
Cu2275     N2285   2.074       .  S
Cu2276     N2278   2.072       .  S
Cu2276     N2284   2.072       .  S
N2277      N2278   1.322       .  A
N2277      C2281   1.344       .  A
N2278      C2279   1.345       .  A
C2279      C2280   1.383       .  A
C2279      H2282   1.082       .  S
C2280      C2281   1.382       .  A
C2281      H2283   1.082       .  S
N2284      N2285   1.321       .  A
N2284      C2288   1.344       .  A
N2285      C2286   1.345       .  A
C2286      C2287   1.386       .  A
C2286      H2289   1.081       .  S
C2287      C2288   1.385       .  A
C2287      C3937   1.484       .  S
C2288      H2290   1.082       .  S
N2291      N2292   1.322       .  A
N2291      C2295   1.345       .  A
N2291     Cu2299   2.074       .  S
N2292      C2293   1.343       .  A
N2292     Cu2298   2.072       .  S
C2293      C2294   1.385       .  A
C2293      H2296   1.081       .  S
C2294      C2295   1.385       .  A
C2294      C3916   1.483       .  S
C2295      H2297   1.082       .  S
Cu2298     N2301   2.071       .  S
Cu2299     N2309   2.074       .  S
Cu2300     N2302   2.069       .  S
Cu2300     N2308   2.069       .  S
N2301      N2302   1.321       .  A
N2301      C2305   1.345       .  A
N2302      C2303   1.345       .  A
C2303      C2304   1.383       .  A
C2303      H2306   1.082       .  S
C2304      C2305   1.384       .  A
C2304      C2541   1.471       .  S
C2305      H2307   1.082       .  S
N2308      N2309   1.321       .  A
N2308      C2312   1.342       .  A
N2309      C2310   1.346       .  A
C2310      C2311   1.388       .  A
C2310      H2313   1.081       .  S
C2311      C2312   1.386       .  A
C2311      C3925   1.485       .  S
C2312      H2314   1.082       .  S
N2315      N2316   1.321       .  A
N2315      C2319   1.344       .  A
N2315     Cu2323   2.071       .  S
N2316      C2317   1.346       .  A
N2316     Cu2322   2.077       .  S
C2317      C2318   1.386       .  A
C2317      H2320   1.082       .  S
C2318      C2319   1.385       .  A
C2318      C3901   1.483       .  S
C2319      H2321   1.081       .  S
Cu2322     N2325   2.077       .  S
Cu2323     N2333   2.071       .  S
Cu2324     N2326   2.077       .  S
Cu2324     N2332   2.076       .  S
N2325      N2326   1.323       .  A
N2325      C2329   1.346       .  A
N2326      C2327   1.345       .  A
C2327      C2328   1.383       .  A
C2327      H2330   1.082       .  S
C2328      C2329   1.383       .  A
C2328      C2565   1.472       .  S
C2329      H2331   1.082       .  S
N2332      N2333   1.321       .  A
N2332      C2336   1.346       .  A
N2333      C2334   1.343       .  A
C2334      C2335   1.386       .  A
C2334      H2337   1.082       .  S
C2335      C2336   1.388       .  A
C2335      C3889   1.485       .  S
C2336      H2338   1.081       .  S
N2339      N2340   1.322       .  A
N2339      C2343   1.345       .  A
N2339     Cu2347   2.084       .  S
N2340      C2341   1.345       .  A
N2340     Cu2346   2.067       .  S
C2341      C2342   1.383       .  A
C2341      H2344   1.082       .  S
C2342      C2343   1.388       .  A
C2342      C3877   1.483       .  S
C2343      H2345   1.081       .  S
Cu2346     N2349   2.067       .  S
Cu2347     N2357   2.084       .  S
Cu2348     N2350   2.064       .  S
Cu2348     N2356   2.064       .  S
N2349      N2350   1.322       .  A
N2349      C2353   1.343       .  A
N2350      C2351   1.343       .  A
C2351      C2352   1.381       .  A
C2351      H2354   1.082       .  S
C2352      C2353   1.382       .  A
C2353      H2355   1.082       .  S
N2356      N2357   1.322       .  A
N2356      C2360   1.344       .  A
N2357      C2358   1.345       .  A
C2358      C2359   1.388       .  A
C2358      H2361   1.081       .  S
C2359      C2360   1.382       .  A
C2359      C4072   1.482       .  S
C2360      H2362   1.082       .  S
N2363      N2364   1.318       .  A
N2363      C2367   1.345       .  A
N2363     Cu2371   2.074       .  S
N2364      C2365   1.339       .  A
N2364     Cu2370   2.068       .  S
C2365      C2366   1.394       .  A
C2365      H2368   1.080       .  S
C2366      C2367   1.395       .  A
C2366      C3853   1.503       .  S
C2367      H2369   1.076       .  S
Cu2370     N2373   2.068       .  S
Cu2371     N2381   2.075       .  S
Cu2372     N2374   2.068       .  S
Cu2372     N2380   2.067       .  S
N2373      N2374   1.321       .  A
N2373      C2377   1.345       .  A
N2374      C2375   1.343       .  A
C2375      C2376   1.382       .  A
C2375      H2378   1.082       .  S
C2376      C2377   1.383       .  A
C2377      H2379   1.082       .  S
N2380      N2381   1.321       .  A
N2380      C2384   1.343       .  A
N2381      C2382   1.345       .  A
C2382      C2383   1.386       .  A
C2382      H2385   1.082       .  S
C2383      C2384   1.385       .  A
C2383      C3865   1.484       .  S
C2384      H2386   1.081       .  S
C2387      C2388   1.371   1_655  D
C2387      C3892   1.503       .  S
C2387      C4288   1.495       .  S
C2388      C3856   1.494       .  S
C2388      C3880   1.502       .  S
N2389      N2390   1.322       .  A
N2389      C2393   1.344       .  A
N2389     Cu2397   2.082       .  S
N2390      C2391   1.346       .  A
N2390     Cu2396   2.075       .  S
C2391      C2392   1.387       .  A
C2391      H2394   1.081       .  S
C2392      C2393   1.388       .  A
C2392      C3844   1.487       .  S
C2393      H2395   1.082       .  S
Cu2396     N2399   2.075       .  S
Cu2397     N2407   2.081       .  S
Cu2398     N2400   2.063       .  S
Cu2398     N2406   2.063       .  S
N2399      N2400   1.322       .  A
N2399      C2403   1.345       .  A
N2400      C2401   1.343       .  A
C2401      C2402   1.381       .  A
C2401      H2404   1.082       .  S
C2402      C2403   1.384       .  A
C2403      H2405   1.082       .  S
N2406      N2407   1.320       .  A
N2406      C2410   1.343       .  A
N2407      C2408   1.346       .  A
C2408      C2409   1.391       .  A
C2408      H2411   1.081       .  S
C2409      C2410   1.386       .  A
C2409      C4060   1.489       .  S
C2410      H2412   1.082       .  S
N2413      N2414   1.322       .  A
N2413      C2417   1.343       .  A
N2413     Cu2421   2.077       .  S
N2414      C2415   1.347       .  A
N2414     Cu2420   2.075       .  S
C2415      C2416   1.386       .  A
C2415      H2418   1.082       .  S
C2416      C2417   1.386       .  A
C2416      C3829   1.483       .  S
C2417      H2419   1.082       .  S
Cu2420     N2423   2.075       .  S
Cu2421     N2431   2.077       .  S
Cu2422     N2424   2.075       .  S
Cu2422     N2430   2.074       .  S
N2423      N2424   1.323       .  A
N2423      C2427   1.345       .  A
N2424      C2425   1.345       .  A
C2425      C2426   1.382       .  A
C2425      H2428   1.082       .  S
C2426      C2427   1.382       .  A
C2427      H2429   1.082       .  S
N2430      N2431   1.321       .  A
N2430      C2434   1.346       .  A
N2431      C2432   1.344       .  A
C2432      C2433   1.387       .  A
C2432      H2435   1.082       .  S
C2433      C2434   1.387       .  A
C2433      C3817   1.484       .  S
C2434      H2436   1.082       .  S
N2437      N2438   1.322       .  A
N2437      C2441   1.347       .  A
N2437     Cu2445   2.081       .  S
N2438      C2439   1.343       .  A
N2438     Cu2444   2.072       .  S
C2439      C2440   1.386       .  A
C2439      H2442   1.082       .  S
C2440      C2441   1.389       .  A
C2440      C3796   1.487       .  S
C2441      H2443   1.081       .  S
Cu2444     N2447   2.071       .  S
Cu2445     N2455   2.081       .  S
Cu2446     N2448   2.073       .  S
Cu2446     N2454   2.074       .  S
N2447      N2448   1.321       .  A
N2447      C2451   1.345       .  A
N2448      C2449   1.346       .  A
C2449      C2450   1.384       .  A
C2449      H2452   1.082       .  S
C2450      C2451   1.383       .  A
C2451      H2453   1.082       .  S
N2454      N2455   1.322       .  A
N2454      C2458   1.343       .  A
N2455      C2456   1.346       .  A
C2456      C2457   1.386       .  A
C2456      H2459   1.082       .  S
C2457      C2458   1.385       .  A
C2457      C3805   1.484       .  S
C2458      H2460   1.081       .  S
C2461      C2462   1.371   1_655  D
C2461      C3820   1.500       .  S
C2461      C4300   1.500       .  S
C2462      C3793   1.498       .  S
C2462      C3841   1.499       .  S
N2463      N2464   1.321       .  A
N2463      C2467   1.345       .  A
N2463     Cu2471   2.077       .  S
N2464      C2465   1.344       .  A
N2464     Cu2470   2.067       .  S
C2465      C2466   1.385       .  A
C2465      H2468   1.081       .  S
C2466      C2467   1.387       .  A
C2466      C3784   1.483       .  S
C2467      H2469   1.082       .  S
Cu2470     N2473   2.067       .  S
Cu2471     N2481   2.077       .  S
Cu2472     N2474   2.070       .  S
Cu2472     N2480   2.070       .  S
N2473      N2474   1.322       .  A
N2473      C2477   1.344       .  A
N2474      C2475   1.344       .  A
C2475      C2476   1.383       .  A
C2475      H2478   1.082       .  S
C2476      C2477   1.382       .  A
C2477      H2479   1.082       .  S
N2480      N2481   1.322       .  A
N2480      C2484   1.345       .  A
N2481      C2482   1.344       .  A
C2482      C2483   1.386       .  A
C2482      H2485   1.081       .  S
C2483      C2484   1.383       .  A
C2483      C3769   1.481       .  S
C2484      H2486   1.082       .  S
N2487      N2488   1.320       .  A
N2487      C2491   1.346       .  A
N2487     Cu2495   2.071       .  S
N2488      C2489   1.341       .  A
N2488     Cu2494   2.065       .  S
C2489      C2490   1.385       .  A
C2489      H2492   1.082       .  S
C2490      C2491   1.387       .  A
C2490      C3760   1.483       .  S
C2491      H2493   1.081       .  S
Cu2494     N2497   2.065       .  S
Cu2495     N2505   2.071       .  S
Cu2496     N2498   2.063       .  S
Cu2496     N2504   2.064       .  S
N2497      N2498   1.321       .  A
N2497      C2501   1.343       .  A
N2498      C2499   1.343       .  A
C2499      C2500   1.382       .  A
C2499      H2502   1.082       .  S
C2500      C2501   1.381       .  A
C2501      H2503   1.082       .  S
N2504      N2505   1.322       .  A
N2504      C2508   1.344       .  A
N2505      C2506   1.342       .  A
C2506      C2507   1.384       .  A
C2506      H2509   1.081       .  S
C2507      C2508   1.382       .  A
C2507      C3745   1.476       .  S
C2508      H2510   1.082       .  S
C2511      C2512   1.366   1_655  D
C2511      C3928   1.495       .  S
C2511      C3940   1.496       .  S
C2512      C3757   1.494       .  S
C2512      C3781   1.495       .  S
C2513      C2514   1.370       .  D
C2513      C3748   1.490       .  S
C2513      C4168   1.501       .  S
C2514      C3808   1.503       .  S
C2514      C4120   1.494       .  S
C2515      C2516   1.371       .  D
C2515      C3868   1.498       .  S
C2515      C4144   1.500       .  S
C2516      C3772   1.493       .  S
C2516      C4156   1.498       .  S
C2517      C2518   1.375       .  D
C2517      C3952   1.505       .  S
C2517      C4036   1.498       .  S
C2518      C3832   1.503       .  S
C2518      C3976   1.506       .  S
C2519      C2520   1.372       .  D
C2519      C3913   1.499       .  S
C2519      C4048   1.499       .  S
C2520      C3904   1.496       .  S
C2520      C4024   1.503       .  S
N2521      N2522   1.322       .  A
N2521      C2525   1.345       .  A
N2521     Cu2529   2.072       .  S
N2522      C2523   1.345       .  A
N2522     Cu2528   2.074       .  S
C2523      C2524   1.383       .  A
C2523      H2526   1.082       .  S
C2524      C2525   1.383       .  A
C2525      H2527   1.082       .  S
Cu2528     N2531   2.074       .  S
Cu2529     N2539   2.072       .  S
Cu2530     N2532   2.074       .  S
Cu2530     N2538   2.074       .  S
N2531      N2532   1.322       .  A
N2531      C2535   1.345       .  A
N2532      C2533   1.345       .  A
C2533      C2534   1.383       .  A
C2533      H2536   1.082       .  S
C2534      C2535   1.383       .  A
C2534      C2702   1.471       .  S
C2535      H2537   1.082       .  S
N2538      N2539   1.322       .  A
N2538      C2542   1.345       .  A
N2539      C2540   1.345       .  A
C2540      C2541   1.383       .  A
C2540      H2543   1.082       .  S
C2541      C2542   1.383       .  A
C2542      H2544   1.082       .  S
N2545      N2546   1.323       .  A
N2545      C2549   1.345       .  A
N2545     Cu2553   2.075       .  S
N2546      C2547   1.346       .  A
N2546     Cu2552   2.079       .  S
C2547      C2548   1.384       .  A
C2547      H2550   1.082       .  S
C2548      C2549   1.383       .  A
C2549      H2551   1.082       .  S
Cu2552     N2555   2.079       .  S
Cu2553     N2563   2.075       .  S
Cu2554     N2556   2.075       .  S
Cu2554     N2562   2.075       .  S
N2555      N2556   1.323       .  A
N2555      C2559   1.346       .  A
N2556      C2557   1.346       .  A
C2557      C2558   1.383       .  A
C2557      H2560   1.082       .  S
C2558      C2559   1.384       .  A
C2558      C2630   1.473       .  S
C2559      H2561   1.082       .  S
N2562      N2563   1.322       .  A
N2562      C2566   1.345       .  A
N2563      C2564   1.345       .  A
C2564      C2565   1.383       .  A
C2564      H2567   1.082       .  S
C2565      C2566   1.383       .  A
C2566      H2568   1.082       .  S
N2569      N2570   1.321       .  A
N2569      C2573   1.347       .  A
N2569     Cu2577   2.081       .  S
N2570      C2571   1.341       .  A
N2570     Cu2576   2.069       .  S
C2571      C2572   1.386       .  A
C2571      H2574   1.082       .  S
C2572      C2573   1.390       .  A
C2572      C3733   1.488       .  S
C2573      H2575   1.081       .  S
Cu2576     N2579   2.068       .  S
Cu2577     N2587   2.082       .  S
Cu2578     N2580   2.066       .  S
Cu2578     N2586   2.067       .  S
N2579      N2580   1.321       .  A
N2579      C2583   1.344       .  A
N2580      C2581   1.344       .  A
C2581      C2582   1.383       .  A
C2581      H2584   1.082       .  S
C2582      C2583   1.383       .  A
C2583      H2585   1.082       .  S
N2586      N2587   1.322       .  A
N2586      C2590   1.342       .  A
N2587      C2588   1.346       .  A
C2588      C2589   1.389       .  A
C2588      H2591   1.081       .  S
C2589      C2590   1.386       .  A
C2589      C3721   1.487       .  S
C2590      H2592   1.082       .  S
N2593      N2594   1.319       .  A
N2593      C2597   1.341       .  A
N2593     Cu2601   2.079       .  S
N2594      C2595   1.348       .  A
N2594     Cu2600   2.070       .  S
C2595      C2596   1.390       .  A
C2595      H2598   1.080       .  S
C2596      C2597   1.391       .  A
C2596      C3709   1.495       .  S
C2597      H2599   1.082       .  S
Cu2600     N2603   2.071       .  S
Cu2601     N2611   2.079       .  S
Cu2602     N2604   2.079       .  S
Cu2602     N2610   2.078       .  S
N2603      N2604   1.324       .  A
N2603      C2607   1.343       .  A
N2604      C2605   1.346       .  A
C2605      C2606   1.383       .  A
C2605      H2608   1.082       .  S
C2606      C2607   1.381       .  A
C2607      H2609   1.082       .  S
N2610      N2611   1.320       .  A
N2610      C2614   1.347       .  A
N2611      C2612   1.344       .  A
C2612      C2613   1.389       .  A
C2612      H2615   1.082       .  S
C2613      C2614   1.390       .  A
C2613      C3700   1.493       .  S
C2614      H2616   1.081       .  S
N2617      N2618   1.321       .  A
N2617      C2621   1.346       .  A
N2617     Cu2625   2.088       .  S
N2618      C2619   1.344       .  A
N2618     Cu2624   2.079       .  S
C2619      C2620   1.392       .  A
C2619      H2622   1.079       .  S
C2620      C2621   1.394       .  A
C2620      C3685   1.501       .  S
C2621      H2623   1.081       .  S
Cu2624     N2627   2.079       .  S
Cu2625     N2635   2.088       .  S
Cu2626     N2628   2.070       .  S
Cu2626     N2634   2.071       .  S
N2627      N2628   1.322       .  A
N2627      C2631   1.346       .  A
N2628      C2629   1.345       .  A
C2629      C2630   1.383       .  A
C2629      H2632   1.082       .  S
C2630      C2631   1.385       .  A
C2631      H2633   1.082       .  S
N2634      N2635   1.321       .  A
N2634      C2638   1.344       .  A
N2635      C2636   1.347       .  A
C2636      C2637   1.392       .  A
C2636      H2639   1.081       .  S
C2637      C2638   1.388       .  A
C2637      C3673   1.494       .  S
C2638      H2640   1.080       .  S
N2641      N2642   1.320       .  A
N2641      C2645   1.344       .  A
N2641     Cu2649   2.071       .  S
N2642      C2643   1.343       .  A
N2642     Cu2648   2.064       .  S
C2643      C2644   1.386       .  A
C2643      H2646   1.081       .  S
C2644      C2645   1.387       .  A
C2644      C3649   1.484       .  S
C2645      H2647   1.082       .  S
Cu2648     N2651   2.065       .  S
Cu2649     N2659   2.071       .  S
Cu2650     N2652   2.078       .  S
Cu2650     N2658   2.079       .  S
N2651      N2652   1.323       .  A
N2651      C2655   1.343       .  A
N2652      C2653   1.346       .  A
C2653      C2654   1.384       .  A
C2653      H2656   1.082       .  S
C2654      C2655   1.380       .  A
C2655      H2657   1.082       .  S
N2658      N2659   1.322       .  A
N2658      C2662   1.346       .  A
N2659      C2660   1.343       .  A
C2660      C2661   1.384       .  A
C2660      H2663   1.082       .  S
C2661      C2662   1.387       .  A
C2661      C3661   1.482       .  S
C2662      H2664   1.082       .  S
N2665      N2666   1.322       .  A
N2665      C2669   1.348       .  A
N2665     Cu2673   2.082       .  S
N2666      C2667   1.341       .  A
N2666     Cu2672   2.068       .  S
C2667      C2668   1.384       .  A
C2667      H2670   1.081       .  S
C2668      C2669   1.388       .  A
C2668      C3637   1.485       .  S
C2669      H2671   1.082       .  S
Cu2672     N2675   2.068       .  S
Cu2673     N2683   2.082       .  S
Cu2674     N2676   2.066       .  S
Cu2674     N2682   2.067       .  S
N2675      N2676   1.321       .  A
N2675      C2679   1.345       .  A
N2676      C2677   1.344       .  A
C2677      C2678   1.383       .  A
C2677      H2680   1.082       .  S
C2678      C2679   1.383       .  A
C2679      H2681   1.082       .  S
N2682      N2683   1.322       .  A
N2682      C2686   1.344       .  A
N2683      C2684   1.345       .  A
C2684      C2685   1.388       .  A
C2684      H2687   1.081       .  S
C2685      C2686   1.384       .  A
C2685      C3625   1.483       .  S
C2686      H2688   1.082       .  S
N2689      N2690   1.319       .  A
N2689      C2693   1.344       .  A
N2689     Cu2697   2.080       .  S
N2690      C2691   1.343       .  A
N2690     Cu2696   2.072       .  S
C2691      C2692   1.393       .  A
C2691      H2694   1.080       .  S
C2692      C2693   1.395       .  A
C2692      C3601   1.502       .  S
C2693      H2695   1.078       .  S
Cu2696     N2699   2.073       .  S
Cu2697     N2707   2.081       .  S
Cu2698     N2700   2.076       .  S
Cu2698     N2706   2.076       .  S
N2699      N2700   1.322       .  A
N2699      C2703   1.345       .  A
N2700      C2701   1.346       .  A
C2701      C2702   1.384       .  A
C2701      H2704   1.082       .  S
C2702      C2703   1.383       .  A
C2703      H2705   1.082       .  S
N2706      N2707   1.320       .  A
N2706      C2710   1.344       .  A
N2707      C2708   1.346       .  A
C2708      C2709   1.391       .  A
C2708      H2711   1.081       .  S
C2709      C2710   1.390       .  A
C2709      C3613   1.495       .  S
C2710      H2712   1.080       .  S
N2713      N2714   1.321       .  A
N2713      C2717   1.343       .  A
N2713     Cu2721   2.065       .  S
N2714      C2715   1.346       .  A
N2714     Cu2720   2.076       .  S
C2715      C2716   1.386       .  A
C2715      H2718   1.082       .  S
C2716      C2717   1.382       .  A
C2716      C3577   1.478       .  S
C2717      H2719   1.082       .  S
Cu2720     N2723   2.077       .  S
Cu2721     N2731   2.065       .  S
Cu2722     N2724   2.071       .  S
Cu2722     N2730   2.071       .  S
N2723      N2724   1.323       .  A
N2723      C2727   1.345       .  A
N2724      C2725   1.344       .  A
C2725      C2726   1.381       .  A
C2725      H2728   1.082       .  S
C2726      C2727   1.383       .  A
C2727      H2729   1.082       .  S
N2730      N2731   1.320       .  A
N2730      C2734   1.345       .  A
N2731      C2732   1.342       .  A
C2732      C2733   1.385       .  A
C2732      H2735   1.082       .  S
C2733      C2734   1.388       .  A
C2733      C3592   1.483       .  S
C2734      H2736   1.081       .  S
N2737      N2738   1.322       .  A
N2737      C2741   1.346       .  A
N2737     Cu2745   2.082       .  S
N2738      C2739   1.343       .  A
N2738     Cu2744   2.067       .  S
C2739      C2740   1.385       .  A
C2739      H2742   1.082       .  S
C2740      C2741   1.388       .  A
C2740      C3565   1.485       .  S
C2741      H2743   1.081       .  S
Cu2744     N2747   2.067       .  S
Cu2745     N2755   2.082       .  S
Cu2746     N2748   2.073       .  S
Cu2746     N2754   2.073       .  S
N2747      N2748   1.321       .  A
N2747      C2751   1.344       .  A
N2748      C2749   1.345       .  A
C2749      C2750   1.384       .  A
C2749      H2752   1.082       .  S
C2750      C2751   1.382       .  A
C2751      H2753   1.082       .  S
N2754      N2755   1.322       .  A
N2754      C2758   1.344       .  A
N2755      C2756   1.347       .  A
C2756      C2757   1.387       .  A
C2756      H2759   1.082       .  S
C2757      C2758   1.385       .  A
C2757      C3553   1.485       .  S
C2758      H2760   1.081       .  S
N2761      N2762   1.322       .  A
N2761      C2765   1.344       .  A
N2761     Cu2769   2.079       .  S
N2762      C2763   1.346       .  A
N2762     Cu2768   2.071       .  S
C2763      C2764   1.386       .  A
C2763      H2766   1.082       .  S
C2764      C2765   1.387       .  A
C2764      C3529   1.484       .  S
C2765      H2767   1.082       .  S
Cu2768     N2771   2.071       .  S
Cu2769     N2779   2.079       .  S
Cu2770     N2772   2.070       .  S
Cu2770     N2778   2.070       .  S
N2771      N2772   1.323       .  A
N2771      C2775   1.345       .  A
N2772      C2773   1.343       .  A
C2773      C2774   1.382       .  A
C2773      H2776   1.082       .  S
C2774      C2775   1.382       .  A
C2775      H2777   1.082       .  S
N2778      N2779   1.321       .  A
N2778      C2782   1.345       .  A
N2779      C2780   1.344       .  A
C2780      C2781   1.388       .  A
C2780      H2783   1.081       .  S
C2781      C2782   1.387       .  A
C2781      C3541   1.487       .  S
C2782      H2784   1.082       .  S
C2785      C2786   1.374   1_455  D
C2785      C3544   1.505       .  S
C2785      C3580   1.502       .  S
C2786      C3505   1.495       .  S
C2786      C3517   1.501       .  S
C2787      C2788   1.368   1_545  D
C2787      C3532   1.501       .  S
C2787      C3568   1.495       .  S
C2788      C3481   1.494       .  S
C2788      C3496   1.496       .  S
C2789      C2790   1.368   1_554  D
C2789      C3556   1.498       .  S
C2789      C3589   1.496       .  S
C2790      C3457   1.494       .  S
C2790      C3469   1.493       .  S
N2791      N2792   1.320       .  A
N2791      C2795   1.344       .  A
N2791     Cu2799   2.084       .  S
N2792      C2793   1.345       .  A
N2792     Cu2798   2.067       .  S
C2793      C2794   1.389       .  A
C2793      H2796   1.079       .  S
C2794      C2795   1.392       .  A
C2794      C3433   1.495       .  S
C2795      H2797   1.082       .  S
Cu2798     N2801   2.067       .  S
Cu2799     N2809   2.084       .  S
Cu2800     N2802   2.070       .  S
Cu2800     N2808   2.069       .  S
N2801      N2802   1.322       .  A
N2801      C2805   1.344       .  A
N2802      C2803   1.345       .  A
C2803      C2804   1.383       .  A
C2803      H2806   1.082       .  S
C2804      C2805   1.382       .  A
C2805      H2807   1.082       .  S
N2808      N2809   1.320       .  A
N2808      C2812   1.345       .  A
N2809      C2810   1.344       .  A
C2810      C2811   1.392       .  A
C2810      H2813   1.081       .  S
C2811      C2812   1.389       .  A
C2811      C3445   1.495       .  S
C2812      H2814   1.080       .  S
N2815      N2816   1.320       .  A
N2815      C2819   1.346       .  A
N2815     Cu2823   2.078       .  S
N2816      C2817   1.342       .  A
N2816     Cu2822   2.069       .  S
C2817      C2818   1.389       .  A
C2817      H2820   1.082       .  S
C2818      C2819   1.391       .  A
C2818      C3409   1.494       .  S
C2819      H2821   1.079       .  S
Cu2822     N2825   2.068       .  S
Cu2823     N2833   2.079       .  S
Cu2824     N2826   2.074       .  S
Cu2824     N2832   2.074       .  S
N2825      N2826   1.321       .  A
N2825      C2829   1.345       .  A
N2826      C2827   1.345       .  A
C2827      C2828   1.384       .  A
C2827      H2830   1.082       .  S
C2828      C2829   1.383       .  A
C2829      H2831   1.082       .  S
N2832      N2833   1.320       .  A
N2832      C2836   1.343       .  A
N2833      C2834   1.345       .  A
C2834      C2835   1.391       .  A
C2834      H2837   1.081       .  S
C2835      C2836   1.390       .  A
C2835      C3421   1.495       .  S
C2836      H2838   1.079       .  S
C2839      C2840   1.374   1_556  D
C2839      C3628   1.501       .  S
C2839      C3664   1.506       .  S
C2840      C3424   1.499       .  S
C2840      C3448   1.499       .  S
N2841      N2842   1.321       .  A
N2841      C2845   1.346       .  A
N2841     Cu2849   2.082       .  S
N2842      C2843   1.343       .  A
N2842     Cu2848   2.066       .  S
C2843      C2844   1.384       .  A
C2843      H2846   1.082       .  S
C2844      C2845   1.388       .  A
C2844      C3397   1.484       .  S
C2845      H2847   1.082       .  S
Cu2848     N2851   2.066       .  S
Cu2849     N2859   2.082       .  S
Cu2850     N2852   2.076       .  S
Cu2850     N2858   2.076       .  S
N2851      N2852   1.322       .  A
N2851      C2855   1.344       .  A
N2852      C2853   1.345       .  A
C2853      C2854   1.384       .  A
C2853      H2856   1.082       .  S
C2854      C2855   1.382       .  A
C2855      H2857   1.082       .  S
N2858      N2859   1.320       .  A
N2858      C2862   1.344       .  A
N2859      C2860   1.345       .  A
C2860      C2861   1.393       .  A
C2860      H2863   1.081       .  S
C2861      C2862   1.391       .  A
C2861      C3520   1.498       .  S
C2862      H2864   1.079       .  S
N2865      N2866   1.316       .  A
N2865      C2869   1.338       .  A
N2865     Cu2873   2.064       .  S
N2866      C2867   1.345       .  A
N2866     Cu2872   2.068       .  S
C2867      C2868   1.398       .  A
C2867      H2870   1.074       .  S
C2868      C2869   1.396       .  A
C2868      C3508   1.508       .  S
C2869      H2871   1.079       .  S
Cu2872     N2875   2.069       .  S
Cu2873     N2883   2.064       .  S
Cu2874     N2876   2.079       .  S
Cu2874     N2882   2.078       .  S
N2875      N2876   1.324       .  A
N2875      C2879   1.343       .  A
N2876      C2877   1.346       .  A
C2877      C2878   1.383       .  A
C2877      H2880   1.082       .  S
C2878      C2879   1.380       .  A
C2879      H2881   1.082       .  S
N2882      N2883   1.319       .  A
N2882      C2886   1.345       .  A
N2883      C2884   1.342       .  A
C2884      C2885   1.389       .  A
C2884      H2887   1.079       .  S
C2885      C2886   1.393       .  A
C2885      C3385   1.495       .  S
C2886      H2888   1.081       .  S
N2889      N2890   1.321       .  A
N2889      C2893   1.349       .  A
N2889     Cu2897   2.085       .  S
N2890      C2891   1.342       .  A
N2890     Cu2896   2.068       .  S
C2891      C2892   1.385       .  A
C2891      H2894   1.082       .  S
C2892      C2893   1.390       .  A
C2892      C3373   1.488       .  S
C2893      H2895   1.081       .  S
Cu2896     N2899   2.067       .  S
Cu2897     N2907   2.086       .  S
Cu2898     N2900   2.072       .  S
Cu2898     N2906   2.072       .  S
N2899      N2900   1.321       .  A
N2899      C2903   1.344       .  A
N2900      C2901   1.345       .  A
C2901      C2902   1.383       .  A
C2901      H2904   1.082       .  S
C2902      C2903   1.382       .  A
C2903      H2905   1.082       .  S
N2906      N2907   1.321       .  A
N2906      C2910   1.344       .  A
N2907      C2908   1.345       .  A
C2908      C2909   1.392       .  A
C2908      H2911   1.081       .  S
C2909      C2910   1.389       .  A
C2909      C3361   1.495       .  S
C2910      H2912   1.080       .  S
C2913      C2914   1.370   1_556  D
C2913      C3349   1.498       .  S
C2913      C3736   1.498       .  S
C2914      C3376   1.500       .  S
C2914      C3400   1.498       .  S
C2915      C2916   1.373   1_565  D
C2915      C3412   1.503       .  S
C2915      C3676   1.503       .  S
C2916      C3364   1.502       .  S
C2916      C3388   1.504       .  S
N2917      N2918   1.323       .  A
N2917      C2921   1.346       .  A
N2917     Cu2925   2.085       .  S
N2918      C2919   1.344       .  A
N2918     Cu2924   2.072       .  S
C2919      C2920   1.384       .  A
C2919      H2922   1.082       .  S
C2920      C2921   1.388       .  A
C2920      C3352   1.485       .  S
C2921      H2923   1.081       .  S
Cu2924     N2927   2.071       .  S
Cu2925     N2935   2.085       .  S
Cu2926     N2928   2.067       .  S
Cu2926     N2934   2.067       .  S
N2927      N2928   1.321       .  A
N2927      C2931   1.345       .  A
N2928      C2929   1.343       .  A
C2929      C2930   1.382       .  A
C2929      H2932   1.082       .  S
C2930      C2931   1.383       .  A
C2931      H2933   1.082       .  S
N2934      N2935   1.322       .  A
N2934      C2938   1.344       .  A
N2935      C2936   1.347       .  A
C2936      C2937   1.385       .  A
C2936      H2939   1.082       .  S
C2937      C2938   1.380       .  A
C2937      C3337   1.472       .  S
C2938      H2940   1.082       .  S
N2941      N2942   1.322       .  A
N2941      C2945   1.344       .  A
N2941     Cu2949   2.068       .  S
N2942      C2943   1.346       .  A
N2942     Cu2948   2.075       .  S
C2943      C2944   1.383       .  A
C2943      H2946   1.082       .  S
C2944      C2945   1.379       .  A
C2944      C3313   1.470       .  S
C2945      H2947   1.082       .  S
Cu2948     N2951   2.074       .  S
Cu2949     N2959   2.068       .  S
Cu2950     N2952   2.078       .  S
Cu2950     N2958   2.078       .  S
N2951      N2952   1.323       .  A
N2951      C2955   1.345       .  A
N2952      C2953   1.346       .  A
C2953      C2954   1.384       .  A
C2953      H2956   1.082       .  S
C2954      C2955   1.383       .  A
C2955      H2957   1.082       .  S
N2958      N2959   1.320       .  A
N2958      C2962   1.344       .  A
N2959      C2960   1.344       .  A
C2960      C2961   1.387       .  A
C2960      H2963   1.082       .  S
C2961      C2962   1.389       .  A
C2961      C3325   1.487       .  S
C2962      H2964   1.081       .  S
C2965      C2966   1.393   1_565  D
C2965      C3616   1.511       .  S
C2965      C3652   1.494       .  S
C2966      C3328   1.496       .  S
C2966      C3340   1.550       .  S
N2967      N2968   1.316       .  A
N2967      C2971   1.338       .  A
N2967     Cu2975   2.068       .  S
N2968      C2969   1.346       .  A
N2968     Cu2974   2.072       .  S
C2969      C2970   1.399       .  A
C2969      H2972   1.074       .  S
C2970      C2971   1.398       .  A
C2970      C3301   1.512       .  S
C2971      H2973   1.079       .  S
Cu2974     N2977   2.074       .  S
Cu2975     N2985   2.067       .  S
Cu2976     N2978   2.076       .  S
Cu2976     N2984   2.075       .  S
N2977      N2978   1.324       .  A
N2977      C2981   1.344       .  A
N2978      C2979   1.345       .  A
C2979      C2980   1.382       .  A
C2979      H2982   1.082       .  S
C2980      C2981   1.381       .  A
C2981      H2983   1.082       .  S
N2984      N2985   1.320       .  A
N2984      C2988   1.347       .  A
N2985      C2986   1.342       .  A
C2986      C2987   1.386       .  A
C2986      H2989   1.081       .  S
C2987      C2988   1.388       .  A
C2987      C3472   1.486       .  S
C2988      H2990   1.082       .  S
N2991      N2992   1.321       .  A
N2991      C2995   1.347       .  A
N2991     Cu2999   2.087       .  S
N2992      C2993   1.342       .  A
N2992     Cu2998   2.070       .  S
C2993      C2994   1.388       .  A
C2993      H2996   1.082       .  S
C2994      C2995   1.393       .  A
C2994      C3292   1.496       .  S
C2995      H2997   1.079       .  S
Cu2998     N3001   2.069       .  S
Cu2999     N3009   2.087       .  S
Cu3000     N3002   2.070       .  S
Cu3000     N3008   2.070       .  S
N3001      N3002   1.321       .  A
N3001      C3005   1.345       .  A
N3002      C3003   1.345       .  A
C3003      C3004   1.384       .  A
C3003      H3006   1.082       .  S
C3004      C3005   1.384       .  A
C3005      H3007   1.082       .  S
N3008      N3009   1.320       .  A
N3008      C3012   1.342       .  A
N3009      C3010   1.347       .  A
C3010      C3011   1.394       .  A
C3010      H3013   1.081       .  S
C3011      C3012   1.389       .  A
C3011      C3460   1.497       .  S
C3012      H3014   1.079       .  S
N3015      N3016   1.320       .  A
N3015      C3019   1.343       .  A
N3015     Cu3023   2.074       .  S
N3016      C3017   1.344       .  A
N3016     Cu3022   2.070       .  S
C3017      C3018   1.390       .  A
C3017      H3020   1.081       .  S
C3018      C3019   1.390       .  A
C3018      C3280   1.494       .  S
C3019      H3021   1.079       .  S
Cu3022     N3025   2.070       .  S
Cu3023     N3033   2.075       .  S
Cu3024     N3026   2.062       .  S
Cu3024     N3032   2.062       .  S
N3025      N3026   1.322       .  A
N3025      C3029   1.345       .  A
N3026      C3027   1.342       .  A
C3027      C3028   1.380       .  A
C3027      H3030   1.082       .  S
C3028      C3029   1.383       .  A
C3029      H3031   1.082       .  S
N3032      N3033   1.321       .  A
N3032      C3036   1.344       .  A
N3033      C3034   1.344       .  A
C3034      C3035   1.387       .  A
C3034      H3037   1.081       .  S
C3035      C3036   1.383       .  A
C3035      C3268   1.481       .  S
C3036      H3038   1.082       .  S
C3039      C3040   1.380   1_565  D
C3039      C3253   1.536       .  S
C3039      C3712   1.512       .  S
C3040      C3277   1.489       .  S
C3040      C3304   1.500       .  S
C3041      C3042   1.386   1_655  D
C3041      C3316   1.548       .  S
C3041      C3724   1.504       .  S
C3042      C3265   1.497       .  S
C3042      C3289   1.507       .  S
N3043      N3044   1.322       .  A
N3043      C3047   1.342       .  A
N3043     Cu3051   2.061       .  S
N3044      C3045   1.347       .  A
N3044     Cu3050   2.080       .  S
C3045      C3046   1.386       .  A
C3045      H3048   1.082       .  S
C3046      C3047   1.379       .  A
C3046      C3256   1.475       .  S
C3047      H3049   1.082       .  S
Cu3050     N3053   2.080       .  S
Cu3051     N3061   2.061       .  S
Cu3052     N3054   2.070       .  S
Cu3052     N3060   2.070       .  S
N3053      N3054   1.323       .  A
N3053      C3057   1.346       .  A
N3054      C3055   1.343       .  A
C3055      C3056   1.381       .  A
C3055      H3058   1.082       .  S
C3056      C3057   1.384       .  A
C3057      H3059   1.082       .  S
N3060      N3061   1.320       .  A
N3060      C3064   1.344       .  A
N3061      C3062   1.343       .  A
C3062      C3063   1.385       .  A
C3062      H3065   1.081       .  S
C3063      C3064   1.387       .  A
C3063      C3241   1.481       .  S
C3064      H3066   1.082       .  S
N3067      N3068   1.321       .  A
N3067      C3071   1.343       .  A
N3067     Cu3075   2.078       .  S
N3068      C3069   1.345       .  A
N3068     Cu3074   2.064       .  S
C3069      C3070   1.386       .  A
C3069      H3072   1.081       .  S
C3070      C3071   1.388       .  A
C3070      C3217   1.486       .  S
C3071      H3073   1.082       .  S
Cu3074     N3077   2.064       .  S
Cu3075     N3085   2.078       .  S
Cu3076     N3078   2.074       .  S
Cu3076     N3084   2.075       .  S
N3077      N3078   1.322       .  A
N3077      C3081   1.343       .  A
N3078      C3079   1.345       .  A
C3079      C3080   1.383       .  A
C3079      H3082   1.082       .  S
C3080      C3081   1.380       .  A
C3081      H3083   1.082       .  S
N3084      N3085   1.322       .  A
N3084      C3088   1.345       .  A
N3085      C3086   1.345       .  A
C3086      C3087   1.387       .  A
C3086      H3089   1.081       .  S
C3087      C3088   1.385       .  A
C3087      C3229   1.485       .  S
C3088      H3090   1.082       .  S
C3091      C3092   1.372   1_655  D
C3091      C3604   1.498       .  S
C3091      C3640   1.493       .  S
C3092      C3232   1.500       .  S
C3092      C3244   1.499       .  S
N3093      N3094   1.319       .  A
N3093      C3097   1.342       .  A
N3093     Cu3101   2.077       .  S
N3094      C3095   1.347       .  A
N3094     Cu3100   2.075       .  S
C3095      C3096   1.392       .  A
C3095      H3098   1.079       .  S
C3096      C3097   1.391       .  A
C3096      C3493   1.498       .  S
C3097      H3099   1.081       .  S
Cu3100     N3103   2.075       .  S
Cu3101     N3111   2.077       .  S
Cu3102     N3104   2.078       .  S
Cu3102     N3110   2.078       .  S
N3103      N3104   1.323       .  A
N3103      C3107   1.344       .  A
N3104      C3105   1.346       .  A
C3105      C3106   1.384       .  A
C3105      H3108   1.082       .  S
C3106      C3107   1.382       .  A
C3107      H3109   1.082       .  S
N3110      N3111   1.320       .  A
N3110      C3114   1.345       .  A
N3111      C3112   1.345       .  A
C3112      C3113   1.390       .  A
C3112      H3115   1.081       .  S
C3113      C3114   1.391       .  A
C3113      C3205   1.495       .  S
C3114      H3116   1.080       .  S
N3117      N3118   1.320       .  A
N3117      C3121   1.343       .  A
N3117     Cu3125   2.065       .  S
N3118      C3119   1.344       .  A
N3118     Cu3124   2.072       .  S
C3119      C3120   1.388       .  A
C3119      H3122   1.081       .  S
C3120      C3121   1.385       .  A
C3120      C3484   1.486       .  S
C3121      H3123   1.082       .  S
Cu3124     N3127   2.073       .  S
Cu3125     N3135   2.065       .  S
Cu3126     N3128   2.079       .  S
Cu3126     N3134   2.079       .  S
N3127      N3128   1.323       .  A
N3127      C3131   1.344       .  A
N3128      C3129   1.346       .  A
C3129      C3130   1.384       .  A
C3129      H3132   1.082       .  S
C3130      C3131   1.382       .  A
C3131      H3133   1.082       .  S
N3134      N3135   1.322       .  A
N3134      C3138   1.347       .  A
N3135      C3136   1.342       .  A
C3136      C3137   1.383       .  A
C3136      H3139   1.082       .  S
C3137      C3138   1.387       .  A
C3137      C3193   1.481       .  S
C3138      H3140   1.082       .  S
N3141      N3142   1.320       .  A
N3141      C3145   1.341       .  A
N3141     Cu3149   2.081       .  S
N3142      C3143   1.347       .  A
N3142     Cu3148   2.073       .  S
C3143      C3144   1.391       .  A
C3143      H3146   1.081       .  S
C3144      C3145   1.392       .  A
C3144      C3172   1.497       .  S
C3145      H3147   1.079       .  S
Cu3148     N3151   2.073       .  S
Cu3149     N3159   2.082       .  S
Cu3150     N3152   2.069       .  S
Cu3150     N3158   2.069       .  S
N3151      N3152   1.323       .  A
N3151      C3155   1.345       .  A
N3152      C3153   1.343       .  A
C3153      C3154   1.381       .  A
C3153      H3156   1.082       .  S
C3154      C3155   1.382       .  A
C3155      H3157   1.082       .  S
N3158      N3159   1.321       .  A
N3158      C3162   1.345       .  A
N3159      C3160   1.346       .  A
C3160      C3161   1.388       .  A
C3160      H3163   1.082       .  S
C3161      C3162   1.386       .  A
C3161      C3184   1.486       .  S
C3162      H3164   1.082       .  S
C3165      C3166   1.375   1_655  D
C3165      C3436   1.498       .  S
C3165      C3688   1.503       .  S
C3166      C3181   1.504       .  S
C3166      C3196   1.505       .  S
C3167      C3168   1.377   1_556  D
C3167      C3220   1.502       .  S
C3167      C3697   1.508       .  S
C3168      C3169   1.499       .  S
C3168      C3208   1.497       .  S
C3169      C3170   1.401       .  A
C3169      C3174   1.417       .  A
C3170      C3171   1.392       .  A
C3170      H3179   1.074       .  S
C3171      C3172   1.414       .  A
C3171      S3175   1.802       .  S
C3172      C3173   1.410       .  A
C3173      C3174   1.407       .  A
C3173      H3180   1.082       .  S
C3174      S3176   1.803       .  S
S3175      H3178   1.408       .  S
S3176      H3177   1.400   1_554  S
C3181      C3182   1.405       .  A
C3181      C3186   1.416       .  A
C3182      C3183   1.401       .  A
C3182      H3191   1.076       .  S
C3183      C3184   1.414       .  A
C3183      S3187   1.802       .  S
C3184      C3185   1.403       .  A
C3185      C3186   1.399       .  A
C3185      H3192   1.083       .  S
C3186      S3188   1.801       .  S
S3187      H3190   1.407       .  S
S3188      H3189   1.406       .  S
C3193      C3194   1.400       .  A
C3193      C3198   1.412       .  A
C3194      C3195   1.395       .  A
C3194      H3203   1.084       .  S
C3195      C3196   1.420       .  A
C3195      S3199   1.801       .  S
C3196      C3197   1.408       .  A
C3197      C3198   1.401       .  A
C3197      H3204   1.077       .  S
C3198      S3200   1.802       .  S
S3199      H3202   1.395       .  S
S3200      H3201   1.407       .  S
C3205      C3206   1.407       .  A
C3205      C3210   1.417       .  A
C3206      C3207   1.400       .  A
C3206      H3215   1.082       .  S
C3207      C3208   1.412       .  A
C3207      S3211   1.797       .  S
C3208      C3209   1.404       .  A
C3209      C3210   1.399       .  A
C3209      H3216   1.079       .  S
C3210      S3212   1.801       .  S
S3211      H3214   1.400       .  S
S3212      H3213   1.407       .  S
C3217      C3218   1.402       .  A
C3217      C3222   1.414       .  A
C3218      C3219   1.399       .  A
C3218      H3227   1.084       .  S
C3219      C3220   1.422       .  A
C3219      S3223   1.800       .  S
C3220      C3221   1.408       .  A
C3221      C3222   1.398       .  A
C3221      H3228   1.083       .  S
C3222      S3224   1.801       .  S
S3223      H3226   1.393       .  S
S3224      H3225   1.407       .  S
C3229      C3230   1.406       .  A
C3229      C3234   1.412       .  A
C3230      C3231   1.404       .  A
C3230      H3239   1.084       .  S
C3231      C3232   1.419       .  A
C3231      S3235   1.804       .  S
C3232      C3233   1.407       .  A
C3233      C3234   1.394       .  A
C3233      H3240   1.084       .  S
C3234      S3236   1.802       .  S
S3235      H3238   1.398   1_455  S
S3236      H3237   1.407       .  S
C3241      C3242   1.402       .  A
C3241      C3246   1.413       .  A
C3242      C3243   1.400       .  A
C3242      H3251   1.082       .  S
C3243      C3244   1.416       .  A
C3243      S3247   1.806       .  S
C3244      C3245   1.405       .  A
C3245      C3246   1.398       .  A
C3245      H3252   1.080       .  S
C3246      S3248   1.802       .  S
S3247      H3250   1.406       .  S
S3248      H3249   1.407       .  S
C3253      C3254   1.417       .  A
C3253      C3258   1.432       .  A
C3254      C3255   1.398       .  A
C3254      H3263   1.081       .  S
C3255      C3256   1.405       .  A
C3255      S3259   1.804       .  S
C3256      C3257   1.393       .  A
C3257      C3258   1.400       .  A
C3257      H3264   1.085       .  S
C3258      S3260   1.787       .  S
S3259      H3262   1.407       .  S
S3260      H3261   1.408       .  S
C3265      C3266   1.411       .  A
C3265      C3270   1.417       .  A
C3266      C3267   1.393       .  A
C3266      H3275   1.079       .  S
C3267      C3268   1.410       .  A
C3267      S3271   1.803       .  S
C3268      C3269   1.404       .  A
C3269      C3270   1.403       .  A
C3269      H3276   1.084       .  S
C3270      S3272   1.795       .  S
S3271      H3274   1.407       .  S
S3272      H3273   1.399   1_455  S
C3277      C3278   1.402       .  A
C3277      C3282   1.419       .  A
C3278      C3279   1.398       .  A
C3278      H3287   1.076       .  S
C3279      C3280   1.418       .  A
C3279      S3283   1.801       .  S
C3280      C3281   1.406       .  A
C3281      C3282   1.399       .  A
C3281      H3288   1.082       .  S
C3282      S3284   1.805       .  S
S3283      H3286   1.408       .  S
S3284      H3285   1.403   1_545  S
C3289      C3290   1.405       .  A
C3289      C3294   1.408       .  A
C3290      C3291   1.400       .  A
C3290      H3299   1.083       .  S
C3291      C3292   1.419       .  A
C3291      S3295   1.800       .  S
C3292      C3293   1.408       .  A
C3293      C3294   1.399       .  A
C3293      H3300   1.082       .  S
C3294      S3296   1.790       .  S
S3295      H3298   1.407       .  S
S3296      H3297   1.407   1_455  S
C3301      C3302   1.409       .  A
C3301      C3306   1.425       .  A
C3302      C3303   1.394       .  A
C3302      H3311   1.077       .  S
C3303      C3304   1.416       .  A
C3303      S3307   1.807       .  S
C3304      C3305   1.402       .  A
C3305      C3306   1.405       .  A
C3305      H3312   1.081       .  S
C3306      S3308   1.795       .  S
S3307      H3310   1.396       .  S
S3308      H3309   1.409       .  S
C3313      C3314   1.398       .  A
C3313      C3318   1.401       .  A
C3314      C3315   1.406       .  A
C3314      H3323   1.084       .  S
C3315      C3316   1.428       .  A
C3315      S3319   1.793       .  S
C3316      C3317   1.422       .  A
C3317      C3318   1.392       .  A
C3317      H3324   1.079       .  S
C3318      S3320   1.805       .  S
S3319      H3322   1.408       .  S
S3320      H3321   1.402       .  S
C3325      C3326   1.406       .  A
C3325      C3330   1.414       .  A
C3326      C3327   1.403       .  A
C3326      H3335   1.081       .  S
C3327      C3328   1.414       .  A
C3327      S3331   1.804       .  S
C3328      C3329   1.405       .  A
C3329      C3330   1.398       .  A
C3329      H3336   1.081       .  S
C3330      S3332   1.802       .  S
S3331      H3334   1.406       .  S
S3332      H3333   1.407       .  S
C3337      C3338   1.390       .  A
C3337      C3342   1.403       .  A
C3338      C3339   1.401       .  A
C3338      H3347   1.084       .  S
C3339      C3340   1.439       .  A
C3339      S3343   1.809       .  S
C3340      C3341   1.418       .  A
C3341      C3342   1.403       .  A
C3341      H3348   1.069       .  S
C3342      S3344   1.804       .  S
S3343      H3346   1.407       .  S
S3344      H3345   1.405       .  S
C3349      C3350   1.406       .  A
C3349      C3354   1.419       .  A
C3350      C3351   1.395       .  A
C3350      H3359   1.084       .  S
C3351      C3352   1.412       .  A
C3351      S3355   1.802       .  S
C3352      C3353   1.406       .  A
C3353      C3354   1.404       .  A
C3353      H3360   1.084       .  S
C3354      S3356   1.805       .  S
S3355      H3358   1.407       .  S
S3356      H3357   1.394       .  S
C3361      C3362   1.403       .  A
C3361      C3366   1.418       .  A
C3362      C3363   1.398       .  A
C3362      H3371   1.082       .  S
C3363      C3364   1.419       .  A
C3363      S3367   1.802       .  S
C3364      C3365   1.404       .  A
C3365      C3366   1.402       .  A
C3365      H3372   1.078       .  S
C3366      S3368   1.801       .  S
S3367      H3370   1.387       .  S
S3368      H3369   1.407       .  S
C3373      C3374   1.403       .  A
C3373      C3378   1.415       .  A
C3374      C3375   1.398       .  A
C3374      H3383   1.081       .  S
C3375      C3376   1.416       .  A
C3375      S3379   1.809       .  S
C3376      C3377   1.406       .  A
C3377      C3378   1.404       .  A
C3377      H3384   1.083       .  S
C3378      S3380   1.801       .  S
S3379      H3382   1.406       .  S
S3380      H3381   1.407       .  S
C3385      C3386   1.404       .  A
C3385      C3390   1.417       .  A
C3386      C3387   1.400       .  A
C3386      H3395   1.082       .  S
C3387      C3388   1.422       .  A
C3387      S3391   1.801       .  S
C3388      C3389   1.403       .  A
C3389      C3390   1.398       .  A
C3389      H3396   1.074       .  S
C3390      S3392   1.801       .  S
S3391      H3394   1.377       .  S
S3392      H3393   1.407       .  S
C3397      C3398   1.403       .  A
C3397      C3402   1.415       .  A
C3398      C3399   1.401       .  A
C3398      H3407   1.082       .  S
C3399      C3400   1.413       .  A
C3399      S3403   1.807       .  S
C3400      C3401   1.404       .  A
C3401      C3402   1.400       .  A
C3401      H3408   1.083       .  S
C3402      S3404   1.802       .  S
S3403      H3406   1.406       .  S
S3404      H3405   1.407       .  S
C3409      C3410   1.405       .  A
C3409      C3414   1.417       .  A
C3410      C3411   1.403       .  A
C3410      H3419   1.081       .  S
C3411      C3412   1.414       .  A
C3411      S3415   1.802       .  S
C3412      C3413   1.403       .  A
C3413      C3414   1.399       .  A
C3413      H3420   1.075       .  S
C3414      S3416   1.800       .  S
S3415      H3418   1.406       .  S
S3416      H3417   1.407       .  S
C3421      C3422   1.408       .  A
C3421      C3426   1.417       .  A
C3422      C3423   1.401       .  A
C3422      H3431   1.081       .  S
C3423      C3424   1.413       .  A
C3423      S3427   1.796       .  S
C3424      C3425   1.405       .  A
C3425      C3426   1.397       .  A
C3425      H3432   1.082       .  S
C3426      S3428   1.802       .  S
S3427      H3430   1.400   1_554  S
S3428      H3429   1.407       .  S
C3433      C3434   1.404       .  A
C3433      C3438   1.419       .  A
C3434      C3435   1.396       .  A
C3434      H3443   1.083       .  S
C3435      C3436   1.417       .  A
C3435      S3439   1.801       .  S
C3436      C3437   1.405       .  A
C3437      C3438   1.407       .  A
C3437      H3444   1.081       .  S
C3438      S3440   1.807       .  S
S3439      H3442   1.389       .  S
S3440      H3441   1.407       .  S
C3445      C3446   1.404       .  A
C3445      C3450   1.419       .  A
C3446      C3447   1.397       .  A
C3446      H3455   1.082       .  S
C3447      C3448   1.417       .  A
C3447      S3451   1.802       .  S
C3448      C3449   1.405       .  A
C3449      C3450   1.402       .  A
C3449      H3456   1.082       .  S
C3450      S3452   1.800       .  S
S3451      H3454   1.389       .  S
S3452      H3453   1.407       .  S
C3457      C3458   1.399       .  A
C3457      C3462   1.410       .  A
C3458      C3459   1.397       .  A
C3458      H3467   1.083       .  S
C3459      C3460   1.419       .  A
C3459      S3463   1.802       .  S
C3460      C3461   1.410       .  A
C3461      C3462   1.405       .  A
C3461      H3468   1.080       .  S
C3462      S3464   1.805       .  S
S3463      H3466   1.407       .  S
S3464      H3465   1.406       .  S
C3469      C3470   1.404       .  A
C3469      C3474   1.417       .  A
C3470      C3471   1.391       .  A
C3470      H3479   1.080       .  S
C3471      C3472   1.413       .  A
C3471      S3475   1.803       .  S
C3472      C3473   1.408       .  A
C3473      C3474   1.406       .  A
C3473      H3480   1.083       .  S
C3474      S3476   1.805       .  S
S3475      H3478   1.407       .  S
S3476      H3477   1.401       .  S
C3481      C3482   1.404       .  A
C3481      C3486   1.412       .  A
C3482      C3483   1.393       .  A
C3482      H3491   1.083       .  S
C3483      C3484   1.414       .  A
C3483      S3487   1.802       .  S
C3484      C3485   1.408       .  A
C3485      C3486   1.406       .  A
C3485      H3492   1.082       .  S
C3486      S3488   1.805       .  S
S3487      H3490   1.407       .  S
S3488      H3489   1.406       .  S
C3493      C3494   1.406       .  A
C3493      C3498   1.420       .  A
C3494      C3495   1.395       .  A
C3494      H3503   1.082       .  S
C3495      C3496   1.411       .  A
C3495      S3499   1.799       .  S
C3496      C3497   1.404       .  A
C3497      C3498   1.405       .  A
C3497      H3504   1.084       .  S
C3498      S3500   1.795       .  S
S3499      H3502   1.399       .  S
S3500      H3501   1.409       .  S
C3505      C3506   1.402       .  A
C3505      C3510   1.413       .  A
C3506      C3507   1.402       .  A
C3506      H3515   1.082       .  S
C3507      C3508   1.424       .  A
C3507      S3511   1.794       .  S
C3508      C3509   1.409       .  A
C3509      C3510   1.394       .  A
C3509      H3516   1.078       .  S
C3510      S3512   1.803       .  S
S3511      H3514   1.408       .  S
S3512      H3513   1.389       .  S
C3517      C3518   1.405       .  A
C3517      C3522   1.413       .  A
C3518      C3519   1.399       .  A
C3518      H3527   1.082       .  S
C3519      C3520   1.418       .  A
C3519      S3523   1.801       .  S
C3520      C3521   1.408       .  A
C3521      C3522   1.401       .  A
C3521      H3528   1.081       .  S
C3522      S3524   1.795       .  S
S3523      H3526   1.407       .  S
S3524      H3525   1.400       .  S
C3529      C3530   1.400       .  A
C3529      C3534   1.415       .  A
C3530      C3531   1.394       .  A
C3530      H3539   1.084       .  S
C3531      C3532   1.418       .  A
C3531      S3535   1.801       .  S
C3532      C3533   1.407       .  A
C3533      C3534   1.404       .  A
C3533      H3540   1.082       .  S
C3534      S3536   1.802       .  S
S3535      H3538   1.400       .  S
S3536      H3537   1.407       .  S
C3541      C3542   1.404       .  A
C3541      C3546   1.414       .  A
C3542      C3543   1.400       .  A
C3542      H3551   1.083       .  S
C3543      C3544   1.416       .  A
C3543      S3547   1.801       .  S
C3544      C3545   1.405       .  A
C3545      C3546   1.399       .  A
C3545      H3552   1.074       .  S
C3546      S3548   1.802       .  S
S3547      H3550   1.407       .  S
S3548      H3549   1.407       .  S
C3553      C3554   1.407       .  A
C3553      C3558   1.413       .  A
C3554      C3555   1.406       .  A
C3554      H3563   1.084       .  S
C3555      C3556   1.418       .  A
C3555      S3559   1.804       .  S
C3556      C3557   1.406       .  A
C3557      C3558   1.393       .  A
C3557      H3564   1.084       .  S
C3558      S3560   1.803       .  S
S3559      H3562   1.399   1_554  S
S3560      H3561   1.407       .  S
C3565      C3566   1.404       .  A
C3565      C3570   1.416       .  A
C3566      C3567   1.395       .  A
C3566      H3575   1.083       .  S
C3567      C3568   1.413       .  A
C3567      S3571   1.803       .  S
C3568      C3569   1.404       .  A
C3569      C3570   1.401       .  A
C3569      H3576   1.081       .  S
C3570      S3572   1.801       .  S
S3571      H3574   1.407       .  S
S3572      H3573   1.407       .  S
C3577      C3578   1.400       .  A
C3577      C3582   1.410       .  A
C3578      C3579   1.396       .  A
C3578      H3587   1.084       .  S
C3579      C3580   1.420       .  A
C3579      S3583   1.802       .  S
C3580      C3581   1.408       .  A
C3581      C3582   1.399       .  A
C3581      H3588   1.078       .  S
C3582      S3584   1.802       .  S
S3583      H3586   1.395       .  S
S3584      H3585   1.406       .  S
C3589      C3590   1.405       .  A
C3589      C3594   1.411       .  A
C3590      C3591   1.403       .  A
C3590      H3599   1.081       .  S
C3591      C3592   1.413       .  A
C3591      S3595   1.807       .  S
C3592      C3593   1.403       .  A
C3593      C3594   1.398       .  A
C3593      H3600   1.082       .  S
C3594      S3596   1.805       .  S
S3595      H3598   1.407       .  S
S3596      H3597   1.406       .  S
C3601      C3602   1.410       .  A
C3601      C3606   1.419       .  A
C3602      C3603   1.401       .  A
C3602      H3611   1.080       .  S
C3603      C3604   1.414       .  A
C3603      S3607   1.803       .  S
C3604      C3605   1.402       .  A
C3605      C3606   1.398       .  A
C3605      H3612   1.082       .  S
C3606      S3608   1.800       .  S
S3607      H3610   1.393       .  S
S3608      H3609   1.408       .  S
C3613      C3614   1.405       .  A
C3613      C3618   1.417       .  A
C3614      C3615   1.400       .  A
C3614      H3623   1.082       .  S
C3615      C3616   1.416       .  A
C3615      S3619   1.795       .  S
C3616      C3617   1.406       .  A
C3617      C3618   1.400       .  A
C3617      H3624   1.079       .  S
C3618      S3620   1.801       .  S
S3619      H3622   1.397       .  S
S3620      H3621   1.407       .  S
C3625      C3626   1.403       .  A
C3625      C3630   1.414       .  A
C3626      C3627   1.398       .  A
C3626      H3635   1.083       .  S
C3627      C3628   1.415       .  A
C3627      S3631   1.802       .  S
C3628      C3629   1.404       .  A
C3629      C3630   1.399       .  A
C3629      H3636   1.076       .  S
C3630      S3632   1.802       .  S
S3631      H3634   1.407       .  S
S3632      H3633   1.407       .  S
C3637      C3638   1.407       .  A
C3637      C3642   1.413       .  A
C3638      C3639   1.407       .  A
C3638      H3647   1.084       .  S
C3639      C3640   1.418       .  A
C3639      S3643   1.806       .  S
C3640      C3641   1.402       .  A
C3641      C3642   1.390       .  A
C3641      H3648   1.078       .  S
C3642      S3644   1.804       .  S
S3643      H3646   1.398       .  S
S3644      H3645   1.407       .  S
C3649      C3650   1.404       .  A
C3649      C3654   1.414       .  A
C3650      C3651   1.401       .  A
C3650      H3659   1.084       .  S
C3651      C3652   1.421       .  A
C3651      S3655   1.805       .  S
C3652      C3653   1.406       .  A
C3653      C3654   1.395       .  A
C3653      H3660   1.083       .  S
C3654      S3656   1.802       .  S
S3655      H3658   1.391   1_565  S
S3656      H3657   1.407       .  S
C3661      C3662   1.400       .  A
C3661      C3666   1.412       .  A
C3662      C3663   1.396       .  A
C3662      H3671   1.084       .  S
C3663      C3664   1.420       .  A
C3663      S3667   1.801       .  S
C3664      C3665   1.408       .  A
C3665      C3666   1.401       .  A
C3665      H3672   1.077       .  S
C3666      S3668   1.802       .  S
S3667      H3670   1.395       .  S
S3668      H3669   1.407       .  S
C3673      C3674   1.403       .  A
C3673      C3678   1.417       .  A
C3674      C3675   1.399       .  A
C3674      H3683   1.082       .  S
C3675      C3676   1.416       .  A
C3675      S3679   1.792       .  S
C3676      C3677   1.403       .  A
C3677      C3678   1.402       .  A
C3677      H3684   1.076       .  S
C3678      S3680   1.802       .  S
S3679      H3682   1.402       .  S
S3680      H3681   1.407       .  S
C3685      C3686   1.409       .  A
C3685      C3690   1.419       .  A
C3686      C3687   1.403       .  A
C3686      H3695   1.081       .  S
C3687      C3688   1.413       .  A
C3687      S3691   1.795       .  S
C3688      C3689   1.405       .  A
C3689      C3690   1.399       .  A
C3689      H3696   1.082       .  S
C3690      S3692   1.801       .  S
S3691      H3694   1.401       .  S
S3692      H3693   1.407       .  S
C3697      C3698   1.407       .  A
C3697      C3702   1.417       .  A
C3698      C3699   1.403       .  A
C3698      H3707   1.079       .  S
C3699      C3700   1.416       .  A
C3699      S3703   1.801       .  S
C3700      C3701   1.402       .  A
C3701      C3702   1.401       .  A
C3701      H3708   1.081       .  S
C3702      S3704   1.801       .  S
S3703      H3706   1.407       .  S
S3704      H3705   1.406       .  S
C3709      C3710   1.402       .  A
C3709      C3714   1.418       .  A
C3710      C3711   1.399       .  A
C3710      H3719   1.081       .  S
C3711      C3712   1.416       .  A
C3711      S3715   1.796       .  S
C3712      C3713   1.406       .  A
C3713      C3714   1.404       .  A
C3713      H3720   1.084       .  S
C3714      S3716   1.799       .  S
S3715      H3718   1.407       .  S
S3716      H3717   1.407       .  S
C3721      C3722   1.403       .  A
C3721      C3726   1.415       .  A
C3722      C3723   1.395       .  A
C3722      H3731   1.083       .  S
C3723      C3724   1.419       .  A
C3723      S3727   1.802       .  S
C3724      C3725   1.403       .  A
C3725      C3726   1.400       .  A
C3725      H3732   1.082       .  S
C3726      S3728   1.801       .  S
S3727      H3730   1.389       .  S
S3728      H3729   1.407       .  S
C3733      C3734   1.404       .  A
C3733      C3738   1.418       .  A
C3734      C3735   1.394       .  A
C3734      H3743   1.083       .  S
C3735      C3736   1.410       .  A
C3735      S3739   1.796       .  S
C3736      C3737   1.405       .  A
C3737      C3738   1.403       .  A
C3737      H3744   1.083       .  S
C3738      S3740   1.801       .  S
S3739      H3742   1.405       .  S
S3740      H3741   1.407       .  S
C3745      C3746   1.405       .  A
C3745      C3750   1.410       .  A
C3746      C3747   1.403       .  A
C3746      H3755   1.084       .  S
C3747      C3748   1.416       .  A
C3747      S3751   1.804       .  S
C3748      C3749   1.405       .  A
C3749      C3750   1.389       .  A
C3749      H3756   1.082       .  S
C3750      S3752   1.804       .  S
S3751      H3754   1.403       .  S
S3752      H3753   1.407       .  S
C3757      C3758   1.406       .  A
C3757      C3762   1.416       .  A
C3758      C3759   1.403       .  A
C3758      H3767   1.083       .  S
C3759      C3760   1.416       .  A
C3759      S3763   1.801       .  S
C3760      C3761   1.401       .  A
C3761      C3762   1.392       .  A
C3761      H3768   1.083       .  S
C3762      S3764   1.803       .  S
S3763      H3766   1.407       .  S
S3764      H3765   1.402       .  S
C3769      C3770   1.406       .  A
C3769      C3774   1.412       .  A
C3770      C3771   1.403       .  A
C3770      H3779   1.084       .  S
C3771      C3772   1.416       .  A
C3771      S3775   1.805       .  S
C3772      C3773   1.405       .  A
C3773      C3774   1.393       .  A
C3773      H3780   1.084       .  S
C3774      S3776   1.803       .  S
S3775      H3778   1.403       .  S
S3776      H3777   1.407       .  S
C3781      C3782   1.404       .  A
C3781      C3786   1.413       .  A
C3782      C3783   1.401       .  A
C3782      H3791   1.083       .  S
C3783      C3784   1.416       .  A
C3783      S3787   1.802       .  S
C3784      C3785   1.402       .  A
C3785      C3786   1.396       .  A
C3785      H3792   1.083       .  S
C3786      S3788   1.802       .  S
S3787      H3790   1.407       .  S
S3788      H3789   1.406       .  S
C3793      C3794   1.406       .  A
C3793      C3798   1.414       .  A
C3794      C3795   1.403       .  A
C3794      H3803   1.083       .  S
C3795      C3796   1.417       .  A
C3795      S3799   1.801       .  S
C3796      C3797   1.403       .  A
C3797      C3798   1.394       .  A
C3797      H3804   1.083       .  S
C3798      S3800   1.802       .  S
S3799      H3802   1.407       .  S
S3800      H3801   1.402       .  S
C3805      C3806   1.406       .  A
C3805      C3810   1.411       .  A
C3806      C3807   1.406       .  A
C3806      H3815   1.084       .  S
C3807      C3808   1.421       .  A
C3807      S3811   1.804       .  S
C3808      C3809   1.408       .  A
C3809      C3810   1.392       .  A
C3809      H3816   1.084       .  S
C3810      S3812   1.803       .  S
S3811      H3814   1.391       .  S
S3812      H3813   1.407       .  S
C3817      C3818   1.401       .  A
C3817      C3822   1.416       .  A
C3818      C3819   1.395       .  A
C3818      H3827   1.083       .  S
C3819      C3820   1.415       .  A
C3819      S3823   1.801       .  S
C3820      C3821   1.406       .  A
C3821      C3822   1.403       .  A
C3821      H3828   1.083       .  S
C3822      S3824   1.802       .  S
S3823      H3826   1.401       .  S
S3824      H3825   1.407       .  S
C3829      C3830   1.400       .  A
C3829      C3834   1.414       .  A
C3830      C3831   1.395       .  A
C3830      H3839   1.084       .  S
C3831      C3832   1.419       .  A
C3831      S3835   1.804       .  S
C3832      C3833   1.408       .  A
C3833      C3834   1.404       .  A
C3833      H3840   1.083       .  S
C3834      S3836   1.802       .  S
S3835      H3838   1.396       .  S
S3836      H3837   1.406       .  S
C3841      C3842   1.406       .  A
C3841      C3846   1.415       .  A
C3842      C3843   1.408       .  A
C3842      H3851   1.082       .  S
C3843      C3844   1.416       .  A
C3843      S3847   1.806       .  S
C3844      C3845   1.401       .  A
C3845      C3846   1.394       .  A
C3845      H3852   1.083       .  S
C3846      S3848   1.801       .  S
S3847      H3850   1.407       .  S
S3848      H3849   1.402       .  S
C3853      C3854   1.410       .  A
C3853      C3858   1.424       .  A
C3854      C3855   1.394       .  A
C3854      H3863   1.079       .  S
C3855      C3856   1.409       .  A
C3855      S3859   1.800       .  S
C3856      C3857   1.401       .  A
C3857      C3858   1.401       .  A
C3857      H3864   1.083       .  S
C3858      S3860   1.797       .  S
S3859      H3862   1.398       .  S
S3860      H3861   1.408       .  S
C3865      C3866   1.406       .  A
C3865      C3870   1.413       .  A
C3866      C3867   1.403       .  A
C3866      H3875   1.084       .  S
C3867      C3868   1.419       .  A
C3867      S3871   1.805       .  S
C3868      C3869   1.406       .  A
C3869      C3870   1.392       .  A
C3869      H3876   1.084       .  S
C3870      S3872   1.802       .  S
S3871      H3874   1.397       .  S
S3872      H3873   1.407       .  S
C3877      C3878   1.406       .  A
C3877      C3882   1.409       .  A
C3878      C3879   1.407       .  A
C3878      H3887   1.084       .  S
C3879      C3880   1.420       .  A
C3879      S3883   1.805       .  S
C3880      C3881   1.409       .  A
C3881      C3882   1.391       .  A
C3881      H3888   1.081       .  S
C3882      S3884   1.803       .  S
S3883      H3886   1.393   1_455  S
S3884      H3885   1.407       .  S
C3889      C3890   1.402       .  A
C3889      C3894   1.415       .  A
C3890      C3891   1.396       .  A
C3890      H3899   1.083       .  S
C3891      C3892   1.414       .  A
C3891      S3895   1.795       .  S
C3892      C3893   1.405       .  A
C3893      C3894   1.401       .  A
C3893      H3900   1.077       .  S
C3894      S3896   1.802       .  S
S3895      H3898   1.405       .  S
S3896      H3897   1.407       .  S
C3901      C3902   1.406       .  A
C3901      C3906   1.413       .  A
C3902      C3903   1.407       .  A
C3902      H3911   1.082       .  S
C3903      C3904   1.413       .  A
C3903      S3907   1.805       .  S
C3904      C3905   1.404       .  A
C3905      C3906   1.394       .  A
C3905      H3912   1.084       .  S
C3906      S3908   1.803       .  S
S3907      H3910   1.406       .  S
S3908      H3909   1.407       .  S
C3913      C3914   1.407       .  A
C3913      C3918   1.419       .  A
C3914      C3915   1.391       .  A
C3914      H3923   1.082       .  S
C3915      C3916   1.411       .  A
C3915      S3919   1.803       .  S
C3916      C3917   1.406       .  A
C3917      C3918   1.404       .  A
C3917      H3924   1.084       .  S
C3918      S3920   1.805       .  S
S3919      H3922   1.407       .  S
S3920      H3921   1.391       .  S
C3925      C3926   1.403       .  A
C3925      C3930   1.417       .  A
C3926      C3927   1.393       .  A
C3926      H3935   1.083       .  S
C3927      C3928   1.411       .  A
C3927      S3931   1.798       .  S
C3928      C3929   1.405       .  A
C3929      C3930   1.402       .  A
C3929      H3936   1.083       .  S
C3930      S3932   1.801       .  S
S3931      H3934   1.404       .  S
S3932      H3933   1.407       .  S
C3937      C3938   1.406       .  A
C3937      C3942   1.413       .  A
C3938      C3939   1.406       .  A
C3938      H3947   1.082       .  S
C3939      C3940   1.414       .  A
C3939      S3943   1.805       .  S
C3940      C3941   1.405       .  A
C3941      C3942   1.394       .  A
C3941      H3948   1.084       .  S
C3942      S3944   1.802       .  S
S3943      H3946   1.406       .  S
S3944      H3945   1.407       .  S
C3949      C3950   1.405       .  A
C3949      C3954   1.413       .  A
C3950      C3951   1.402       .  A
C3950      H3959   1.084       .  S
C3951      C3952   1.421       .  A
C3951      S3955   1.802       .  S
C3952      C3953   1.408       .  A
C3953      C3954   1.395       .  A
C3953      H3960   1.082       .  S
C3954      S3956   1.802       .  S
S3955      H3958   1.384       .  S
S3956      H3957   1.407       .  S
C3961      C3962   1.404       .  A
C3961      C3966   1.418       .  A
C3962      C3963   1.395       .  A
C3962      H3971   1.083       .  S
C3963      C3964   1.411       .  A
C3963      S3967   1.798       .  S
C3964      C3965   1.405       .  A
C3965      C3966   1.404       .  A
C3965      H3972   1.083       .  S
C3966      S3968   1.800       .  S
S3967      H3970   1.403       .  S
S3968      H3969   1.407       .  S
C3973      C3974   1.403       .  A
C3973      C3978   1.412       .  A
C3974      C3975   1.405       .  A
C3974      H3983   1.082       .  S
C3975      C3976   1.419       .  A
C3975      S3979   1.801       .  S
C3976      C3977   1.408       .  A
C3977      C3978   1.397       .  A
C3977      H3984   1.084       .  S
C3978      S3980   1.802       .  S
S3979      H3982   1.406       .  S
S3980      H3981   1.407       .  S
C3985      C3986   1.405       .  A
C3985      C3990   1.412       .  A
C3986      C3987   1.405       .  A
C3986      H3995   1.084       .  S
C3987      C3988   1.420       .  A
C3987      S3991   1.801       .  S
C3988      C3989   1.407       .  A
C3989      C3990   1.395       .  A
C3989      H3996   1.081       .  S
C3990      S3992   1.803       .  S
S3991      H3994   1.398       .  S
S3992      H3993   1.407       .  S
C3997      C3998   1.403       .  A
C3997      C4002   1.416       .  A
C3998      C3999   1.396       .  A
C3998      H4007   1.083       .  S
C3999      C4000   1.413       .  A
C3999      S4003   1.802       .  S
C4000      C4001   1.404       .  A
C4001      C4002   1.406       .  A
C4001      H4008   1.081       .  S
C4002      S4004   1.806       .  S
S4003      H4006   1.406       .  S
S4004      H4005   1.407       .  S
C4009      C4010   1.405       .  A
C4009      C4014   1.412       .  A
C4010      C4011   1.406       .  A
C4010      H4019   1.084       .  S
C4011      C4012   1.419       .  A
C4011      S4015   1.797       .  S
C4012      C4013   1.406       .  A
C4013      C4014   1.393       .  A
C4013      H4020   1.078       .  S
C4014      S4016   1.804       .  S
S4015      H4018   1.395       .  S
S4016      H4017   1.407       .  S
C4021      C4022   1.402       .  A
C4021      C4026   1.414       .  A
C4022      C4023   1.403       .  A
C4022      H4031   1.082       .  S
C4023      C4024   1.415       .  A
C4023      S4027   1.796       .  S
C4024      C4025   1.408       .  A
C4025      C4026   1.397       .  A
C4025      H4032   1.083       .  S
C4026      S4028   1.803       .  S
S4027      H4030   1.407       .  S
S4028      H4029   1.407       .  S
C4033      C4034   1.408       .  A
C4033      C4038   1.427       .  A
C4034      C4035   1.394       .  A
C4034      H4043   1.079       .  S
C4035      C4036   1.412       .  A
C4035      S4039   1.802       .  S
C4036      C4037   1.402       .  A
C4037      C4038   1.407       .  A
C4037      H4044   1.084       .  S
C4038      S4040   1.797       .  S
S4039      H4042   1.397       .  S
S4040      H4041   1.408       .  S
C4045      C4046   1.405       .  A
C4045      C4050   1.424       .  A
C4046      C4047   1.393       .  A
C4046      H4055   1.080       .  S
C4047      C4048   1.416       .  A
C4047      S4051   1.802       .  S
C4048      C4049   1.404       .  A
C4049      C4050   1.406       .  A
C4049      H4056   1.084       .  S
C4050      S4052   1.799       .  S
S4051      H4054   1.391       .  S
S4052      H4053   1.408       .  S
C4057      C4058   1.405       .  A
C4057      C4062   1.414       .  A
C4058      C4059   1.400       .  A
C4058      H4067   1.073       .  S
C4059      C4060   1.415       .  A
C4059      S4063   1.802       .  S
C4060      C4061   1.404       .  A
C4061      C4062   1.398       .  A
C4061      H4068   1.083       .  S
C4062      S4064   1.796       .  S
S4063      H4066   1.407       .  S
S4064      H4065   1.407       .  S
C4069      C4070   1.408       .  A
C4069      C4074   1.419       .  A
C4070      C4071   1.391       .  A
C4070      H4079   1.081       .  S
C4071      C4072   1.409       .  A
C4071      S4075   1.803       .  S
C4072      C4073   1.406       .  A
C4073      C4074   1.406       .  A
C4073      H4080   1.084       .  S
C4074      S4076   1.805       .  S
S4075      H4078   1.407       .  S
S4076      H4077   1.392       .  S
C4081      C4082   1.410       .  A
C4081      C4086   1.416       .  A
C4082      C4083   1.404       .  A
C4082      H4091   1.081       .  S
C4083      C4084   1.417       .  A
C4083      S4087   1.799       .  S
C4084      C4085   1.404       .  A
C4085      C4086   1.394       .  A
C4085      H4092   1.081       .  S
C4086      S4088   1.801       .  S
S4087      H4090   1.395       .  S
S4088      H4089   1.408       .  S
C4093      C4094   1.402       .  A
C4093      C4098   1.414       .  A
C4094      C4095   1.397       .  A
C4094      H4103   1.083       .  S
C4095      C4096   1.414       .  A
C4095      S4099   1.794       .  S
C4096      C4097   1.405       .  A
C4097      C4098   1.399       .  A
C4097      H4104   1.077       .  S
C4098      S4100   1.803       .  S
S4099      H4102   1.406       .  S
S4100      H4101   1.407       .  S
C4105      C4106   1.402       .  A
C4105      C4110   1.411       .  A
C4106      C4107   1.402       .  A
C4106      H4115   1.082       .  S
C4107      C4108   1.418       .  A
C4107      S4111   1.801       .  S
C4108      C4109   1.407       .  A
C4109      C4110   1.395       .  A
C4109      H4116   1.084       .  S
C4110      S4112   1.802       .  S
S4111      H4114   1.406       .  S
S4112      H4113   1.407       .  S
C4117      C4118   1.403       .  A
C4117      C4122   1.415       .  A
C4118      C4119   1.390       .  A
C4118      H4127   1.082       .  S
C4119      C4120   1.414       .  A
C4119      S4123   1.801       .  S
C4120      C4121   1.406       .  A
C4121      C4122   1.401       .  A
C4121      H4128   1.083       .  S
C4122      S4124   1.796       .  S
S4123      H4126   1.395       .  S
S4124      H4125   1.408       .  S
C4129      C4130   1.411       .  A
C4129      C4134   1.425       .  A
C4130      C4131   1.395       .  A
C4130      H4139   1.079       .  S
C4131      C4132   1.409       .  A
C4131      S4135   1.800       .  S
C4132      C4133   1.401       .  A
C4133      C4134   1.402       .  A
C4133      H4140   1.084       .  S
C4134      S4136   1.797       .  S
S4135      H4138   1.398       .  S
S4136      H4137   1.408       .  S
C4141      C4142   1.400       .  A
C4141      C4146   1.416       .  A
C4142      C4143   1.392       .  A
C4142      H4151   1.084       .  S
C4143      C4144   1.417       .  A
C4143      S4147   1.800       .  S
C4144      C4145   1.407       .  A
C4145      C4146   1.408       .  A
C4145      H4152   1.082       .  S
C4146      S4148   1.805       .  S
S4147      H4150   1.398       .  S
S4148      H4149   1.407       .  S
C4153      C4154   1.405       .  A
C4153      C4158   1.415       .  A
C4154      C4155   1.405       .  A
C4154      H4163   1.082       .  S
C4155      C4156   1.413       .  A
C4155      S4159   1.800       .  S
C4156      C4157   1.406       .  A
C4157      C4158   1.396       .  A
C4157      H4164   1.083       .  S
C4158      S4160   1.803       .  S
S4159      H4162   1.407       .  S
S4160      H4161   1.407       .  S
C4165      C4166   1.404       .  A
C4165      C4170   1.415       .  A
C4166      C4167   1.401       .  A
C4166      H4175   1.084       .  S
C4167      C4168   1.416       .  A
C4167      S4171   1.796       .  S
C4168      C4169   1.405       .  A
C4169      C4170   1.397       .  A
C4169      H4176   1.083       .  S
C4170      S4172   1.802       .  S
S4171      H4174   1.399       .  S
S4172      H4173   1.407       .  S
C4177      C4178   1.400       .  A
C4177      C4182   1.415       .  A
C4178      C4179   1.392       .  A
C4178      H4187   1.083       .  S
C4179      C4180   1.419       .  A
C4179      S4183   1.806       .  S
C4180      C4181   1.407       .  A
C4181      C4182   1.404       .  A
C4181      H4188   1.083       .  S
C4182      S4184   1.801       .  S
S4183      H4186   1.399       .  S
S4184      H4185   1.407       .  S
C4189      C4190   1.407       .  A
C4189      C4194   1.421       .  A
C4190      C4191   1.397       .  A
C4190      H4199   1.081       .  S
C4191      C4192   1.414       .  A
C4191      S4195   1.803       .  S
C4192      C4193   1.402       .  A
C4193      C4194   1.400       .  A
C4193      H4200   1.082       .  S
C4194      S4196   1.799       .  S
S4195      H4198   1.396       .  S
S4196      H4197   1.408       .  S
C4201      C4202   1.403       .  A
C4201      C4206   1.416       .  A
C4202      C4203   1.396       .  A
C4202      H4211   1.083       .  S
C4203      C4204   1.414       .  A
C4203      S4207   1.802       .  S
C4204      C4205   1.405       .  A
C4205      C4206   1.401       .  A
C4205      H4212   1.083       .  S
C4206      S4208   1.801       .  S
S4207      H4210   1.407       .  S
S4208      H4209   1.407       .  S
C4213      C4214   1.405       .  A
C4213      C4218   1.412       .  A
C4214      C4215   1.404       .  A
C4214      H4223   1.084       .  S
C4215      C4216   1.420       .  A
C4215      S4219   1.803       .  S
C4216      C4217   1.407       .  A
C4217      C4218   1.393       .  A
C4217      H4224   1.084       .  S
C4218      S4220   1.803       .  S
S4219      H4222   1.397       .  S
S4220      H4221   1.407       .  S
C4225      C4226   1.405       .  A
C4225      C4230   1.413       .  A
C4226      C4227   1.404       .  A
C4226      H4235   1.084       .  S
C4227      C4228   1.421       .  A
C4227      S4231   1.802       .  S
C4228      C4229   1.407       .  A
C4229      C4230   1.395       .  A
C4229      H4236   1.084       .  S
C4230      S4232   1.802       .  S
S4231      H4234   1.389       .  S
S4232      H4233   1.407       .  S
C4237      C4238   1.401       .  A
C4237      C4242   1.415       .  A
C4238      C4239   1.393       .  A
C4238      H4247   1.083       .  S
C4239      C4240   1.417       .  A
C4239      S4243   1.802       .  S
C4240      C4241   1.407       .  A
C4241      C4242   1.404       .  A
C4241      H4248   1.083       .  S
C4242      S4244   1.801       .  S
S4243      H4246   1.401       .  S
S4244      H4245   1.407       .  S
C4249      C4250   1.404       .  A
C4249      C4254   1.418       .  A
C4250      C4251   1.394       .  A
C4250      H4259   1.083       .  S
C4251      C4252   1.410       .  A
C4251      S4255   1.795       .  S
C4252      C4253   1.405       .  A
C4253      C4254   1.403       .  A
C4253      H4260   1.083       .  S
C4254      S4256   1.801       .  S
S4255      H4258   1.406       .  S
S4256      H4257   1.407       .  S
C4261      C4262   1.403       .  A
C4261      C4266   1.414       .  A
C4262      C4263   1.400       .  A
C4262      H4271   1.084       .  S
C4263      C4264   1.419       .  A
C4263      S4267   1.796       .  S
C4264      C4265   1.407       .  A
C4265      C4266   1.397       .  A
C4265      H4272   1.084       .  S
C4266      S4268   1.802       .  S
S4267      H4270   1.396       .  S
S4268      H4269   1.407       .  S
C4273      C4274   1.401       .  A
C4273      C4278   1.416       .  A
C4274      C4275   1.395       .  A
C4274      H4283   1.080       .  S
C4275      C4276   1.419       .  A
C4275      S4279   1.800       .  S
C4276      C4277   1.410       .  A
C4277      C4278   1.402       .  A
C4277      H4284   1.080       .  S
C4278      S4280   1.801       .  S
S4279      H4282   1.408       .  S
S4280      H4281   1.391       .  S
C4285      C4286   1.404       .  A
C4285      C4290   1.410       .  A
C4286      C4287   1.403       .  A
C4286      H4295   1.084       .  S
C4287      C4288   1.419       .  A
C4287      S4291   1.804       .  S
C4288      C4289   1.407       .  A
C4289      C4290   1.392       .  A
C4289      H4296   1.084       .  S
C4290      S4292   1.803       .  S
S4291      H4294   1.396       .  S
S4292      H4293   1.407       .  S
C4297      C4298   1.403       .  A
C4297      C4302   1.417       .  A
C4298      C4299   1.395       .  A
C4298      H4307   1.083       .  S
C4299      C4300   1.415       .  A
C4299      S4303   1.801       .  S
C4300      C4301   1.406       .  A
C4301      C4302   1.404       .  A
C4301      H4308   1.083       .  S
C4302      S4304   1.801       .  S
S4303      H4306   1.402       .  S
S4304      H4305   1.407       .  S
C4309      C4310   1.407       .  A
C4309      C4314   1.414       .  A
C4310      C4311   1.406       .  A
C4310      H4319   1.082       .  S
C4311      C4312   1.413       .  A
C4311      S4315   1.805       .  S
C4312      C4313   1.404       .  A
C4313      C4314   1.399       .  A
C4313      H4320   1.082       .  S
C4314      S4316   1.808       .  S
S4315      H4318   1.406       .  S
S4316      H4317   1.407       .  S
C4321      C4322   1.404       .  A
C4321      C4326   1.413       .  A
C4322      C4323   1.401       .  A
C4322      H4331   1.084       .  S
C4323      C4324   1.419       .  A
C4323      S4327   1.801       .  S
C4324      C4325   1.406       .  A
C4325      C4326   1.395       .  A
C4325      H4332   1.083       .  S
C4326      S4328   1.802       .  S
S4327      H4330   1.395       .  S
S4328      H4329   1.407       .  S
C4333      C4334   1.407       .  A
C4333      C4338   1.414       .  A
C4334      C4335   1.405       .  A
C4334      H4343   1.083       .  S
C4335      C4336   1.418       .  A
C4335      S4339   1.805       .  S
C4336      C4337   1.406       .  A
C4337      C4338   1.394       .  A
C4337      H4344   1.080       .  S
C4338      S4340   1.803       .  S
S4339      H4342   1.396   1_545  S
S4340      H4341   1.407       .  S
C4345      C4346   1.408       .  A
C4345      C4350   1.419       .  A
C4346      C4347   1.399       .  A
C4346      H4355   1.080       .  S
C4347      C4348   1.411       .  A
C4347      S4351   1.794       .  S
C4348      C4349   1.403       .  A
C4349      C4350   1.398       .  A
C4349      H4356   1.083       .  S
C4350      S4352   1.801       .  S
S4351      H4354   1.401       .  S
S4352      H4353   1.408       .  S
C4357      C4358   1.412       .  A
C4357      C4362   1.424       .  A
C4358      C4359   1.400       .  A
C4358      H4367   1.079       .  S
C4359      C4360   1.412       .  A
C4359      S4363   1.800       .  S
C4360      C4361   1.401       .  A
C4361      C4362   1.400       .  A
C4361      H4368   1.080       .  S
C4362      S4364   1.796       .  S
S4363      H4366   1.391       .  S
S4364      H4365   1.408       .  S
C4369      C4370   1.408       .  A
C4369      C4374   1.416       .  A
C4370      C4371   1.407       .  A
C4370      H4379   1.081       .  S
C4371      C4372   1.413       .  A
C4371      S4375   1.804       .  S
C4372      C4373   1.402       .  A
C4373      C4374   1.401       .  A
C4373      H4380   1.081       .  S
C4374      S4376   1.807       .  S
S4375      H4378   1.406       .  S
S4376      H4377   1.407       .  S
C4381      C4382   1.407       .  A
C4381      C4386   1.417       .  A
C4382      C4383   1.402       .  A
C4382      H4391   1.082       .  S
C4383      C4384   1.416       .  A
C4383      S4387   1.799       .  S
C4384      C4385   1.401       .  A
C4385      C4386   1.396       .  A
C4385      H4392   1.082       .  S
C4386      S4388   1.802       .  S
S4387      H4390   1.393       .  S
S4388      H4389   1.407       .  S
C4393      C4394   1.390       .  A
C4393      C4398   1.404       .  A
C4394      C4395   1.400       .  A
C4394      H4403   1.084       .  S
C4395      C4396   1.441       .  A
C4395      S4399   1.811       .  S
C4396      C4397   1.418       .  A
C4397      C4398   1.404       .  A
C4397      H4404   1.072       .  S
C4398      S4400   1.804       .  S
S4399      H4402   1.407       .  S
S4400      H4401   1.406       .  S
C4405      C4406   1.403       .  A
C4405      C4410   1.414       .  A
C4406      C4407   1.401       .  A
C4406      H4415   1.083       .  S
C4407      C4408   1.419       .  A
C4407      S4411   1.801       .  S
C4408      C4409   1.406       .  A
C4409      C4410   1.399       .  A
C4409      H4416   1.078       .  S
C4410      S4412   1.802       .  S
S4411      H4414   1.396       .  S
S4412      H4413   1.407       .  S
C4417      C4418   1.403       .  A
C4417      C4422   1.416       .  A
C4418      C4419   1.396       .  A
C4418      H4427   1.083       .  S
C4419      C4420   1.414       .  A
C4419      S4423   1.802       .  S
C4420      C4421   1.405       .  A
C4421      C4422   1.402       .  A
C4421      H4428   1.083       .  S
C4422      S4424   1.802       .  S
S4423      H4426   1.407       .  S
S4424      H4425   1.407       .  S
C4429      C4430   1.401       .  A
C4429      C4434   1.413       .  A
C4430      C4431   1.395       .  A
C4430      H4439   1.083       .  S
C4431      C4432   1.417       .  A
C4431      S4435   1.804       .  S
C4432      C4433   1.407       .  A
C4433      C4434   1.405       .  A
C4433      H4440   1.081       .  S
C4434      S4436   1.806       .  S
S4435      H4438   1.402       .  S
S4436      H4437   1.407       .  S
C4441      C4442   1.403       .  A
C4441      C4446   1.412       .  A
C4442      C4443   1.403       .  A
C4442      H4451   1.082       .  S
C4443      C4444   1.414       .  A
C4443      S4447   1.807       .  S
C4444      C4445   1.405       .  A
C4445      C4446   1.398       .  A
C4445      H4452   1.078       .  S
C4446      S4448   1.803       .  S
S4447      H4450   1.406       .  S
S4448      H4449   1.407       .  S
C4453      C4454   1.408       .  A
C4453      C4458   1.416       .  A
C4454      C4455   1.407       .  A
C4454      H4463   1.082       .  S
C4455      C4456   1.411       .  A
C4455      S4459   1.803       .  S
C4456      C4457   1.401       .  A
C4457      C4458   1.395       .  A
C4457      H4464   1.078       .  S
C4458      S4460   1.802       .  S
S4459      H4462   1.406       .  S
S4460      H4461   1.407       .  S
C4465      C4466   1.404       .  A
C4465      C4470   1.411       .  A
C4466      C4467   1.403       .  A
C4466      H4475   1.084       .  S
C4467      C4468   1.420       .  A
C4467      S4471   1.803       .  S
C4468      C4469   1.407       .  A
C4469      C4470   1.395       .  A
C4469      H4476   1.083       .  S
C4470      S4472   1.802       .  S
S4471      H4474   1.389       .  S
S4472      H4473   1.407       .  S
C4477      C4478   1.402       .  A
C4477      C4482   1.413       .  A
C4478      C4479   1.397       .  A
C4478      H4487   1.084       .  S
C4479      C4480   1.417       .  A
C4479      S4483   1.804       .  S
C4480      C4481   1.406       .  A
C4481      C4482   1.400       .  A
C4481      H4488   1.079       .  S
C4482      S4484   1.802       .  S
S4483      H4486   1.404       .  S
S4484      H4485   1.407       .  S
C4489      C4490   1.389       .  A
C4489      C4494   1.406       .  A
C4490      C4491   1.398       .  A
C4490      H4499   1.084       .  S
C4491      C4492   1.439       .  A
C4491      S4495   1.807       .  S
C4492      C4493   1.417       .  A
C4493      C4494   1.405       .  A
C4493      H4500   1.074       .  S
C4494      S4496   1.803       .  S
S4495      H4498   1.407       .  S
S4496      H4497   1.406       .  S
C4501      C4502   1.404       .  A
C4501      C4506   1.419       .  A
C4502      C4503   1.395       .  A
C4502      H4511   1.083       .  S
C4503      C4504   1.411       .  A
C4503      S4507   1.795       .  S
C4504      C4505   1.406       .  A
C4505      C4506   1.405       .  A
C4505      H4512   1.083       .  S
C4506      S4508   1.800       .  S
S4507      H4510   1.406       .  S
S4508      H4509   1.407       .  S
C4513      C4514   1.402       .  A
C4513      C4518   1.415       .  A
C4514      C4515   1.394       .  A
C4514      H4523   1.083       .  S
C4515      C4516   1.419       .  A
C4515      S4519   1.805       .  S
C4516      C4517   1.407       .  A
C4517      C4518   1.402       .  A
C4517      H4524   1.082       .  S
C4518      S4520   1.801       .  S
S4519      H4522   1.400       .  S
S4520      H4521   1.407       .  S
C4525      C4526   1.410       .  A
C4525      C4530   1.420       .  A
C4526      C4527   1.399       .  A
C4526      H4535   1.083       .  S
C4527      C4528   1.413       .  A
C4527      S4531   1.807       .  S
C4528      C4529   1.404       .  A
C4529      C4530   1.399       .  A
C4529      H4536   1.081       .  S
C4530      S4532   1.799       .  S
S4531      H4534   1.402       .  S
S4532      H4533   1.408       .  S
C4537      C4538   1.404       .  A
C4537      C4542   1.412       .  A
C4538      C4539   1.402       .  A
C4538      H4547   1.084       .  S
C4539      C4540   1.421       .  A
C4539      S4543   1.803       .  S
C4540      C4541   1.407       .  A
C4541      C4542   1.396       .  A
C4541      H4548   1.084       .  S
C4542      S4544   1.802       .  S
S4543      H4546   1.389       .  S
S4544      H4545   1.407       .  S
C4549      C4550   1.403       .  A
C4549      C4554   1.415       .  A
C4550      C4551   1.397       .  A
C4550      H4559   1.083       .  S
C4551      C4552   1.414       .  A
C4551      S4555   1.802       .  S
C4552      C4553   1.405       .  A
C4553      C4554   1.400       .  A
C4553      H4560   1.082       .  S
C4554      S4556   1.802       .  S
S4555      H4558   1.407       .  S
S4556      H4557   1.407       .  S
C4561      C4562   1.408       .  A
C4561      C4566   1.415       .  A
C4562      C4563   1.402       .  A
C4562      H4571   1.083       .  S
C4563      C4564   1.414       .  A
C4563      S4567   1.797       .  S
C4564      C4565   1.405       .  A
C4565      C4566   1.396       .  A
C4565      H4572   1.081       .  S
C4566      S4568   1.801       .  S
S4567      H4570   1.395       .  S
S4568      H4569   1.407       .  S
C4573      C4574   1.401       .  A
C4573      C4578   1.415       .  A
C4574      C4575   1.394       .  A
C4574      H4583   1.083       .  S
C4575      C4576   1.419       .  A
C4575      S4579   1.805       .  S
C4576      C4577   1.408       .  A
C4577      C4578   1.404       .  A
C4577      H4584   1.082       .  S
C4578      S4580   1.801       .  S
S4579      H4582   1.400       .  S
S4580      H4581   1.407       .  S
C4585      C4586   1.403       .  A
C4585      C4590   1.411       .  A
C4586      C4587   1.400       .  A
C4586      H4595   1.084       .  S
C4587      C4588   1.418       .  A
C4587      S4591   1.800       .  S
C4588      C4589   1.405       .  A
C4589      C4590   1.397       .  A
C4589      H4596   1.074       .  S
C4590      S4592   1.803       .  S
S4591      H4594   1.407       .  S
S4592      H4593   1.407       .  S
C4597      C4598   1.400       .  A
C4597      C4602   1.413       .  A
C4598      C4599   1.394       .  A
C4598      H4607   1.084       .  S
C4599      C4600   1.419       .  A
C4599      S4603   1.803       .  S
C4600      C4601   1.409       .  A
C4601      C4602   1.404       .  A
C4601      H4608   1.080       .  S
C4602      S4604   1.801       .  S
S4603      H4606   1.396       .  S
S4604      H4605   1.406       .  S
C4609      C4610   1.404       .  A
C4609      C4614   1.418       .  A
C4610      C4611   1.397       .  A
C4610      H4619   1.082       .  S
C4611      C4612   1.417       .  A
C4611      S4615   1.806       .  S
C4612      C4613   1.404       .  A
C4613      C4614   1.400       .  A
C4613      H4620   1.082       .  S
C4614      S4616   1.801       .  S
S4615      H4618   1.399       .  S
S4616      H4617   1.407       .  S
C4621      C4622   1.403       .  A
C4621      C4626   1.416       .  A
C4622      C4623   1.393       .  A
C4622      H4631   1.083       .  S
C4623      C4624   1.410       .  A
C4623      S4627   1.796       .  S
C4624      C4625   1.406       .  A
C4625      C4626   1.402       .  A
C4625      H4632   1.083       .  S
C4626      S4628   1.801       .  S
S4627      H4630   1.405       .  S
S4628      H4629   1.407       .  S
C4633      C4634   1.406       .  A
C4633      C4638   1.417       .  A
C4634      C4635   1.394       .  A
C4634      H4643   1.082       .  S
C4635      C4636   1.413       .  A
C4635      S4639   1.803       .  S
C4636      C4637   1.405       .  A
C4637      C4638   1.402       .  A
C4637      H4644   1.084       .  S
C4638      S4640   1.797       .  S
S4639      H4642   1.407       .  S
S4640      H4641   1.399       .  S
C4645      C4646   1.406       .  A
C4645      C4650   1.419       .  A
C4646      C4647   1.400       .  A
C4646      H4655   1.082       .  S
C4647      C4648   1.414       .  A
C4647      S4651   1.808       .  S
C4648      C4649   1.405       .  A
C4649      C4650   1.401       .  A
C4649      H4656   1.084       .  S
C4650      S4652   1.801       .  S
S4651      H4654   1.407       .  S
S4652      H4653   1.393       .  S
C4657      C4658   1.400       .  A
C4657      C4662   1.416       .  A
C4658      C4659   1.394       .  A
C4658      H4667   1.084       .  S
C4659      C4660   1.417       .  A
C4659      S4663   1.798       .  S
C4660      C4661   1.408       .  A
C4661      C4662   1.407       .  A
C4661      H4668   1.083       .  S
C4662      S4664   1.801       .  S
S4663      H4666   1.403       .  S
S4664      H4665   1.406       .  S
C4669      C4670   1.408       .  A
C4669      C4674   1.415       .  A
C4670      C4671   1.408       .  A
C4670      H4679   1.083       .  S
C4671      C4672   1.413       .  A
C4671      S4675   1.801       .  S
C4672      C4673   1.403       .  A
C4673      C4674   1.395       .  A
C4673      H4680   1.078       .  S
C4674      S4676   1.802       .  S
S4675      H4678   1.407       .  S
S4676      H4677   1.407       .  S
C4681      C4682   1.405       .  A
C4681      C4686   1.414       .  A
C4682      C4683   1.402       .  A
C4682      H4691   1.084       .  S
C4683      C4684   1.416       .  A
C4683      S4687   1.800       .  S
C4684      C4685   1.405       .  A
C4685      C4686   1.397       .  A
C4685      H4692   1.081       .  S
C4686      S4688   1.809       .  S
S4687      H4690   1.397       .  S
S4688      H4689   1.407       .  S
C4693      C4694   1.405       .  A
C4693      C4698   1.413       .  A
C4694      C4695   1.406       .  A
C4694      H4703   1.082       .  S
C4695      C4696   1.417       .  A
C4695      S4699   1.804       .  S
C4696      C4697   1.406       .  A
C4697      C4698   1.395       .  A
C4697      H4704   1.084       .  S
C4698      S4700   1.803       .  S
S4699      H4702   1.406       .  S
S4700      H4701   1.407       .  S
C4705      C4706   1.406       .  A
C4705      C4710   1.413       .  A
C4706      C4707   1.402       .  A
C4706      H4715   1.084       .  S
C4707      C4708   1.417       .  A
C4707      S4711   1.798       .  S
C4708      C4709   1.406       .  A
C4709      C4710   1.395       .  A
C4709      H4716   1.082       .  S
C4710      S4712   1.802       .  S
S4711      H4714   1.397       .  S
S4712      H4713   1.407       .  S
C4717      C4718   1.403       .  A
C4717      C4722   1.410       .  A
C4718      C4719   1.399       .  A
C4718      H4727   1.082       .  S
C4719      C4720   1.417       .  A
C4719      S4723   1.800       .  S
C4720      C4721   1.405       .  A
C4721      C4722   1.397       .  A
C4721      H4728   1.059       .  S
C4722      S4724   1.803       .  S
S4723      H4726   1.407       .  S
S4724      H4725   1.407       .  S
C4729      C4730   1.408       .  A
C4729      C4734   1.420       .  A
C4730      C4731   1.402       .  A
C4730      H4739   1.083       .  S
C4731      C4732   1.414       .  A
C4731      S4735   1.802       .  S
C4732      C4733   1.399       .  A
C4733      C4734   1.394       .  A
C4733      H4740   1.084       .  S
C4734      S4736   1.805       .  S
S4735      H4738   1.406       .  S
S4736      H4737   1.399       .  S
C4741      C4742   1.400       .  A
C4741      C4746   1.415       .  A
C4742      C4743   1.394       .  A
C4742      H4751   1.084       .  S
C4743      C4744   1.420       .  A
C4743      S4747   1.802       .  S
C4744      C4745   1.408       .  A
C4745      C4746   1.405       .  A
C4745      H4752   1.083       .  S
C4746      S4748   1.801       .  S
S4747      H4750   1.395       .  S
S4748      H4749   1.406       .  S
C4753      C4754   1.408       .  A
C4753      C4758   1.419       .  A
C4754      C4755   1.402       .  A
C4754      H4763   1.083       .  S
C4755      C4756   1.414       .  A
C4755      S4759   1.801       .  S
C4756      C4757   1.401       .  A
C4757      C4758   1.394       .  A
C4757      H4764   1.083       .  S
C4758      S4760   1.805       .  S
S4759      H4762   1.407       .  S
S4760      H4761   1.400       .  S
C4765      C4766   1.405       .  A
C4765      C4770   1.412       .  A
C4766      C4767   1.403       .  A
C4766      H4775   1.084       .  S
C4767      C4768   1.417       .  A
C4767      S4771   1.798       .  S
C4768      C4769   1.406       .  A
C4769      C4770   1.394       .  A
C4769      H4776   1.083       .  S
C4770      S4772   1.803       .  S
S4771      H4774   1.397       .  S
S4772      H4773   1.407       .  S
C4777      C4778   1.406       .  A
C4777      C4782   1.415       .  A
C4778      C4779   1.403       .  A
C4778      H4787   1.083       .  S
C4779      C4780   1.417       .  A
C4779      S4783   1.800       .  S
C4780      C4781   1.405       .  A
C4781      C4782   1.394       .  A
C4781      H4788   1.082       .  S
C4782      S4784   1.803       .  S
S4783      H4786   1.399       .  S
S4784      H4785   1.407       .  S
C4789      C4790   1.403       .  A
C4789      C4794   1.416       .  A
C4790      C4791   1.398       .  A
C4790      H4799   1.083       .  S
C4791      C4792   1.414       .  A
C4791      S4795   1.802       .  S
C4792      C4793   1.404       .  A
C4793      C4794   1.400       .  A
C4793      H4800   1.078       .  S
C4794      S4796   1.802       .  S
S4795      H4798   1.406       .  S
S4796      H4797   1.407       .  S
C4801      C4802   1.405       .  A
C4801      C4806   1.413       .  A
C4802      C4803   1.402       .  A
C4802      H4811   1.084       .  S
C4803      C4804   1.417       .  A
C4803      S4807   1.801       .  S
C4804      C4805   1.405       .  A
C4805      C4806   1.393       .  A
C4805      H4812   1.082       .  S
C4806      S4808   1.803       .  S
S4807      H4810   1.399       .  S
S4808      H4809   1.407       .  S
C4813      C4814   1.403       .  A
C4813      C4818   1.411       .  A
C4814      C4815   1.402       .  A
C4814      H4823   1.082       .  S
C4815      C4816   1.414       .  A
C4815      S4819   1.808       .  S
C4816      C4817   1.405       .  A
C4817      C4818   1.398       .  A
C4817      H4824   1.078       .  S
C4818      S4820   1.803       .  S
S4819      H4822   1.406       .  S
S4820      H4821   1.407       .  S
C4825      C4826   1.404       .  A
C4825      C4830   1.418       .  A
C4826      C4827   1.401       .  A
C4826      H4835   1.082       .  S
C4827      C4828   1.419       .  A
C4827      S4831   1.801       .  S
C4828      C4829   1.405       .  A
C4829      C4830   1.398       .  A
C4829      H4836   1.082       .  S
C4830      S4832   1.806       .  S
S4831      H4834   1.407       .  S
S4832      H4833   1.398       .  S
C4837      C4838   1.405       .  A
C4837      C4842   1.413       .  A
C4838      C4839   1.404       .  A
C4838      H4847   1.084       .  S
C4839      C4840   1.419       .  A
C4839      S4843   1.802       .  S
C4840      C4841   1.406       .  A
C4841      C4842   1.395       .  A
C4841      H4848   1.081       .  S
C4842      S4844   1.803       .  S
S4843      H4846   1.396       .  S
S4844      H4845   1.407       .  S
C4849      C4850   1.405       .  A
C4849      C4854   1.419       .  A
C4850      C4851   1.396       .  A
C4850      H4859   1.082       .  S
C4851      C4852   1.414       .  A
C4851      S4855   1.801       .  S
C4852      C4853   1.405       .  A
C4853      C4854   1.404       .  A
C4853      H4860   1.083       .  S
C4854      S4856   1.800       .  S
S4855      H4858   1.407       .  S
S4856      H4857   1.407       .  S
C4861      C4862   1.408       .  A
C4861      C4866   1.421       .  A
C4862      C4863   1.399       .  A
C4862      H4871   1.081       .  S
C4863      C4864   1.415       .  A
C4863      S4867   1.802       .  S
C4864      C4865   1.404       .  A
C4865      C4866   1.402       .  A
C4865      H4872   1.082       .  S
C4866      S4868   1.799       .  S
S4867      H4870   1.392       .  S
S4868      H4869   1.408       .  S
C4873      C4874   1.406       .  A
C4873      C4878   1.417       .  A
C4874      C4875   1.400       .  A
C4874      H4883   1.082       .  S
C4875      C4876   1.413       .  A
C4875      S4879   1.794       .  S
C4876      C4877   1.404       .  A
C4877      C4878   1.397       .  A
C4877      H4884   1.083       .  S
C4878      S4880   1.802       .  S
S4879      H4882   1.400       .  S
S4880      H4881   1.407       .  S
C4885      C4886   1.407       .  A
C4885      C4890   1.419       .  A
C4886      C4887   1.400       .  A
C4886      H4895   1.082       .  S
C4887      C4888   1.411       .  A
C4887      S4891   1.796       .  S
C4888      C4889   1.400       .  A
C4889      C4890   1.396       .  A
C4889      H4896   1.083       .  S
C4890      S4892   1.802       .  S
S4891      H4894   1.402       .  S
S4892      H4893   1.407       .  S
C4897      C4898   1.405       .  A
C4897      C4902   1.413       .  A
C4898      C4899   1.407       .  A
C4898      H4907   1.082       .  S
C4899      C4900   1.415       .  A
C4899      S4903   1.804       .  S
C4900      C4901   1.405       .  A
C4901      C4902   1.395       .  A
C4901      H4908   1.084       .  S
C4902      S4904   1.803       .  S
S4903      H4906   1.406       .  S
S4904      H4905   1.407       .  S
C4909      C4910   1.406       .  A
C4909      C4914   1.415       .  A
C4910      C4911   1.404       .  A
C4910      H4919   1.083       .  S
C4911      C4912   1.416       .  A
C4911      S4915   1.801       .  S
C4912      C4913   1.401       .  A
C4913      C4914   1.393       .  A
C4913      H4920   1.084       .  S
C4914      S4916   1.801       .  S
S4915      H4918   1.406       .  S
S4916      H4917   1.402       .  S
C4921      C4922   1.407       .  A
C4921      C4926   1.415       .  A
C4922      C4923   1.409       .  A
C4922      H4931   1.081       .  S
C4923      C4924   1.416       .  A
C4923      S4927   1.806       .  S
C4924      C4925   1.402       .  A
C4925      C4926   1.392       .  A
C4925      H4932   1.083       .  S
C4926      S4928   1.798       .  S
S4927      H4930   1.407       .  S
S4928      H4929   1.402       .  S
C4933      C4934   1.406       .  A
C4933      C4938   1.415       .  A
C4934      C4935   1.406       .  A
C4934      H4943   1.083       .  S
C4935      C4936   1.417       .  A
C4935      S4939   1.801       .  S
C4936      C4937   1.401       .  A
C4937      C4938   1.393       .  A
C4937      H4944   1.083       .  S
C4938      S4940   1.800       .  S
S4939      H4942   1.407       .  S
S4940      H4941   1.402       .  S
C4945      C4946   1.400       .  A
C4945      C4950   1.414       .  A
C4946      C4947   1.394       .  A
C4946      H4955   1.084       .  S
C4947      C4948   1.420       .  A
C4947      S4951   1.805       .  S
C4948      C4949   1.408       .  A
C4949      C4950   1.403       .  A
C4949      H4956   1.083       .  S
C4950      S4952   1.801       .  S
S4951      H4954   1.399       .  S
S4952      H4953   1.407       .  S
C4957      C4958   1.404       .  A
C4957      C4962   1.415       .  A
C4958      C4959   1.399       .  A
C4958      H4967   1.083       .  S
C4959      C4960   1.415       .  A
C4959      S4963   1.807       .  S
C4960      C4961   1.405       .  A
C4961      C4962   1.404       .  A
C4961      H4968   1.082       .  S
C4962      S4964   1.804       .  S
S4963      H4966   1.407       .  S
S4964      H4965   1.406       .  S
C4969      C4970   1.408       .  A
C4969      C4974   1.421       .  A
C4970      C4971   1.397       .  A
C4970      H4979   1.083       .  S
C4971      C4972   1.411       .  A
C4971      S4975   1.802       .  S
C4972      C4973   1.401       .  A
C4973      C4974   1.398       .  A
C4973      H4980   1.084       .  S
C4974      S4976   1.801       .  S
S4975      H4978   1.407       .  S
S4976      H4977   1.393       .  S
C4981      C4982   1.405       .  A
C4981      C4986   1.412       .  A
C4982      C4983   1.405       .  A
C4982      H4991   1.082       .  S
C4983      C4984   1.416       .  A
C4983      S4987   1.804       .  S
C4984      C4985   1.406       .  A
C4985      C4986   1.394       .  A
C4985      H4992   1.084       .  S
C4986      S4988   1.802       .  S
S4987      H4990   1.406       .  S
S4988      H4989   1.407       .  S
C4993      C4994   1.407       .  A
C4993      C4998   1.413       .  A
C4994      C4995   1.405       .  A
C4994      H5003   1.083       .  S
C4995      C4996   1.418       .  A
C4995      S4999   1.802       .  S
C4996      C4997   1.400       .  A
C4997      C4998   1.391       .  A
C4997      H5004   1.075       .  S
C4998      S5000   1.803       .  S
S4999      H5002   1.399       .  S
S5000      H5001   1.407       .  S
C5005      C5006   1.404       .  A
C5005      C5010   1.415       .  A
C5006      C5007   1.395       .  A
C5006      H5015   1.083       .  S
C5007      C5008   1.412       .  A
C5007      S5011   1.802       .  S
C5008      C5009   1.404       .  A
C5009      C5010   1.399       .  A
C5009      H5016   1.080       .  S
C5010      S5012   1.802       .  S
S5011      H5014   1.407       .  S
S5012      H5013   1.407       .  S
C5017      C5018   1.405       .  A
C5017      C5022   1.415       .  A
C5018      C5019   1.398       .  A
C5018      H5027   1.077       .  S
C5019      C5020   1.413       .  A
C5019      S5023   1.801       .  S
C5020      C5021   1.404       .  A
C5021      C5022   1.401       .  A
C5021      H5028   1.081       .  S
C5022      S5024   1.802       .  S
S5023      H5026   1.407       .  S
S5024      H5025   1.406       .  S
C5029      C5030   1.405       .  A
C5029      C5034   1.413       .  A
C5030      C5031   1.402       .  A
C5030      H5039   1.083       .  S
C5031      C5032   1.418       .  A
C5031      S5035   1.801       .  S
C5032      C5033   1.403       .  A
C5033      C5034   1.395       .  A
C5033      H5040   1.083       .  S
C5034      S5036   1.796       .  S
S5035      H5038   1.407       .  S
S5036      H5037   1.401       .  S
C5041      C5042   1.406       .  A
C5041      C5046   1.413       .  A
C5042      C5043   1.403       .  A
C5042      H5051   1.084       .  S
C5043      C5044   1.417       .  A
C5043      S5047   1.801       .  S
C5044      C5045   1.405       .  A
C5045      C5046   1.395       .  A
C5045      H5052   1.082       .  S
C5046      S5048   1.802       .  S
S5047      H5050   1.400       .  S
S5048      H5049   1.407       .  S
C5053      C5054   1.402       .  A
C5053      C5058   1.416       .  A
C5054      C5055   1.394       .  A
C5054      H5063   1.084       .  S
C5055      C5056   1.419       .  A
C5055      S5059   1.800       .  S
C5056      C5057   1.412       .  A
C5057      C5058   1.405       .  A
C5057      H5064   1.080       .  S
C5058      S5060   1.805       .  S
S5059      H5062   1.408       .  S
S5060      H5061   1.393   1_554  S
C5065      C5066   1.403       .  A
C5065      C5070   1.416       .  A
C5066      C5067   1.396       .  A
C5066      H5075   1.083       .  S
C5067      C5068   1.413       .  A
C5067      S5071   1.798       .  S
C5068      C5069   1.404       .  A
C5069      C5070   1.400       .  A
C5069      H5076   1.079       .  S
C5070      S5072   1.801       .  S
S5071      H5074   1.406       .  S
S5072      H5073   1.407       .  S
C5077      C5078   1.401       .  A
C5077      C5082   1.415       .  A
C5078      C5079   1.391       .  A
C5078      H5087   1.084       .  S
C5079      C5080   1.416       .  A
C5079      S5083   1.803       .  S
C5080      C5081   1.406       .  A
C5081      C5082   1.404       .  A
C5081      H5088   1.083       .  S
C5082      S5084   1.801       .  S
S5083      H5086   1.402       .  S
S5084      H5085   1.406       .  S
C5089      C5090   1.407       .  A
C5089      C5094   1.413       .  A
C5090      C5091   1.406       .  A
C5090      H5099   1.082       .  S
C5091      C5092   1.412       .  A
C5091      S5095   1.804       .  S
C5092      C5093   1.404       .  A
C5093      C5094   1.391       .  A
C5093      H5100   1.081       .  S
C5094      S5096   1.803       .  S
S5095      H5098   1.406       .  S
S5096      H5097   1.407       .  S
C5101      C5102   1.403       .  A
C5101      C5106   1.417       .  A
C5102      C5103   1.393       .  A
C5102      H5111   1.083       .  S
C5103      C5104   1.411       .  A
C5103      S5107   1.797       .  S
C5104      C5105   1.404       .  A
C5105      C5106   1.401       .  A
C5105      H5112   1.083       .  S
C5106      S5108   1.801       .  S
S5107      H5110   1.404       .  S
S5108      H5109   1.407       .  S
C5113      C5114   1.404       .  A
C5113      C5118   1.415       .  A
C5114      C5115   1.399       .  A
C5114      H5123   1.081       .  S
C5115      C5116   1.413       .  A
C5115      S5119   1.807       .  S
C5116      C5117   1.405       .  A
C5117      C5118   1.401       .  A
C5117      H5124   1.083       .  S
C5118      S5120   1.801       .  S
S5119      H5122   1.406       .  S
S5120      H5121   1.407       .  S
C5125      C5126   1.399       .  A
C5125      C5130   1.414       .  A
C5126      C5127   1.393       .  A
C5126      H5135   1.084       .  S
C5127      C5128   1.418       .  A
C5127      S5131   1.801       .  S
C5128      C5129   1.407       .  A
C5129      C5130   1.402       .  A
C5129      H5136   1.082       .  S
C5130      S5132   1.802       .  S
S5131      H5134   1.398       .  S
S5132      H5133   1.406       .  S
C5137      C5138   1.399       .  A
C5137      C5142   1.413       .  A
C5138      C5139   1.393       .  A
C5138      H5147   1.084       .  S
C5139      C5140   1.419       .  A
C5139      S5143   1.804       .  S
C5140      C5141   1.407       .  A
C5141      C5142   1.402       .  A
C5141      H5148   1.083       .  S
C5142      S5144   1.802       .  S
S5143      H5146   1.400       .  S
S5144      H5145   1.406       .  S
C5149      C5150   1.404       .  A
C5149      C5154   1.413       .  A
C5150      C5151   1.401       .  A
C5150      H5159   1.084       .  S
C5151      C5152   1.417       .  A
C5151      S5155   1.800       .  S
C5152      C5153   1.405       .  A
C5153      C5154   1.395       .  A
C5153      H5160   1.083       .  S
C5154      S5156   1.802       .  S
S5155      H5158   1.395       .  S
S5156      H5157   1.407       .  S
C5161      C5162   1.406       .  A
C5161      C5166   1.414       .  A
C5162      C5163   1.405       .  A
C5162      H5171   1.083       .  S
C5163      C5164   1.419       .  A
C5163      S5167   1.798       .  S
C5164      C5165   1.405       .  A
C5165      C5166   1.394       .  A
C5165      H5172   1.077       .  S
C5166      S5168   1.803       .  S
S5167      H5170   1.397       .  S
S5168      H5169   1.407       .  S
C5173      C5174   1.403       .  A
C5173      C5178   1.418       .  A
C5174      C5175   1.396       .  A
C5174      H5183   1.083       .  S
C5175      C5176   1.413       .  A
C5175      S5179   1.802       .  S
C5176      C5177   1.404       .  A
C5177      C5178   1.402       .  A
C5177      H5184   1.083       .  S
C5178      S5180   1.802       .  S
S5179      H5182   1.406       .  S
S5180      H5181   1.407       .  S
C5185      C5186   1.404       .  A
C5185      C5190   1.412       .  A
C5186      C5187   1.406       .  A
C5186      H5195   1.082       .  S
C5187      C5188   1.416       .  A
C5187      S5191   1.803       .  S
C5188      C5189   1.406       .  A
C5189      C5190   1.394       .  A
C5189      H5196   1.084       .  S
C5190      S5192   1.803       .  S
S5191      H5194   1.406       .  S
S5192      H5193   1.407       .  S
C5197      C5198   1.409       .  A
C5197      C5202   1.425       .  A
C5198      C5199   1.394       .  A
C5198      H5207   1.080       .  S
C5199      C5200   1.410       .  A
C5199      S5203   1.801       .  S
C5200      C5201   1.401       .  A
C5201      C5202   1.402       .  A
C5201      H5208   1.084       .  S
C5202      S5204   1.798       .  S
S5203      H5206   1.394       .  S
S5204      H5205   1.408       .  S
C5209      C5210   1.404       .  A
C5209      C5214   1.416       .  A
C5210      C5211   1.393       .  A
C5210      H5219   1.083       .  S
C5211      C5212   1.412       .  A
C5211      S5215   1.803       .  S
C5212      C5213   1.406       .  A
C5213      C5214   1.403       .  A
C5213      H5220   1.084       .  S
C5214      S5216   1.805       .  S
S5215      H5218   1.407       .  S
S5216      H5217   1.403       .  S
C5221      C5222   1.404       .  A
C5221      C5226   1.414       .  A
C5222      C5223   1.395       .  A
C5222      H5231   1.083       .  S
C5223      C5224   1.414       .  A
C5223      S5227   1.802       .  S
C5224      C5225   1.407       .  A
C5225      C5226   1.401       .  A
C5225      H5232   1.083       .  S
C5226      S5228   1.800       .  S
S5227      H5230   1.407       .  S
S5228      H5229   1.401       .  S
C5233      C5234   1.406       .  A
C5233      C5238   1.414       .  A
C5234      C5235   1.405       .  A
C5234      H5243   1.084       .  S
C5235      C5236   1.417       .  A
C5235      S5239   1.805       .  S
C5236      C5237   1.404       .  A
C5237      C5238   1.396       .  A
C5237      H5244   1.081       .  S
C5238      S5240   1.810       .  S
S5239      H5242   1.403       .  S
S5240      H5241   1.407       .  S
C5245      C5246   1.401       .  A
C5245      C5250   1.414       .  A
C5246      C5247   1.393       .  A
C5246      H5255   1.084       .  S
C5247      C5248   1.418       .  A
C5247      S5251   1.802       .  S
C5248      C5249   1.409       .  A
C5249      C5250   1.404       .  A
C5249      H5256   1.083       .  S
C5250      S5252   1.801       .  S
S5251      H5254   1.396       .  S
S5252      H5253   1.406       .  S
C5257      C5258   1.403       .  A
C5257      C5262   1.414       .  A
C5258      C5259   1.397       .  A
C5258      H5267   1.082       .  S
C5259      C5260   1.412       .  A
C5259      S5263   1.807       .  S
C5260      C5261   1.406       .  A
C5261      C5262   1.406       .  A
C5261      H5268   1.082       .  S
C5262      S5264   1.806       .  S
S5263      H5266   1.406       .  S
S5264      H5265   1.407       .  S
C5269      C5270   1.405       .  A
C5269      C5274   1.411       .  A
C5270      C5271   1.406       .  A
C5270      H5279   1.082       .  S
C5271      C5272   1.416       .  A
C5271      S5275   1.806       .  S
C5272      C5273   1.406       .  A
C5273      C5274   1.392       .  A
C5273      H5280   1.084       .  S
C5274      S5276   1.803       .  S
S5275      H5278   1.406       .  S
S5276      H5277   1.407       .  S
C5281      C5282   1.405       .  A
C5281      C5286   1.415       .  A
C5282      C5283   1.403       .  A
C5282      H5291   1.084       .  S
C5283      C5284   1.417       .  A
C5283      S5287   1.798       .  S
C5284      C5285   1.405       .  A
C5285      C5286   1.397       .  A
C5285      H5292   1.083       .  S
C5286      S5288   1.802       .  S
S5287      H5290   1.396       .  S
S5288      H5289   1.407       .  S
C5293      C5294   1.404       .  A
C5293      C5298   1.417       .  A
C5294      C5295   1.394       .  A
C5294      H5303   1.082       .  S
C5295      C5296   1.415       .  A
C5295      S5299   1.803       .  S
C5296      C5297   1.406       .  A
C5297      C5298   1.404       .  A
C5297      H5304   1.084       .  S
C5298      S5300   1.800       .  S
S5299      H5302   1.407       .  S
S5300      H5301   1.400       .  S
C5305      C5306   1.399       .  A
C5305      C5310   1.411       .  A
C5306      C5307   1.394       .  A
C5306      H5315   1.084       .  S
C5307      C5308   1.419       .  A
C5307      S5311   1.805       .  S
C5308      C5309   1.408       .  A
C5309      C5310   1.406       .  A
C5309      H5316   1.082       .  S
C5310      S5312   1.806       .  S
S5311      H5314   1.399       .  S
S5312      H5313   1.407       .  S
C5317      C5318   1.404       .  A
C5317      C5322   1.411       .  A
C5318      C5319   1.401       .  A
C5318      H5327   1.084       .  S
C5319      C5320   1.419       .  A
C5319      S5323   1.801       .  S
C5320      C5321   1.407       .  A
C5321      C5322   1.394       .  A
C5321      H5328   1.084       .  S
C5322      S5324   1.802       .  S
S5323      H5326   1.392       .  S
S5324      H5325   1.407       .  S
C5329      C5330   1.414       .  A
C5329      C5334   1.423       .  A
C5330      C5331   1.406       .  A
C5330      H5339   1.079       .  S
C5331      C5332   1.408       .  A
C5331      S5335   1.804       .  S
C5332      C5333   1.398       .  A
C5333      C5334   1.395       .  A
C5333      H5340   1.084       .  S
C5334      S5336   1.796       .  S
S5335      H5338   1.406       .  S
S5336      H5337   1.408       .  S
C5341      C5342   1.402       .  A
C5341      C5346   1.416       .  A
C5342      C5343   1.393       .  A
C5342      H5351   1.083       .  S
C5343      C5344   1.417       .  A
C5343      S5347   1.801       .  S
C5344      C5345   1.408       .  A
C5345      C5346   1.404       .  A
C5345      H5352   1.083       .  S
C5346      S5348   1.801       .  S
S5347      H5350   1.397       .  S
S5348      H5349   1.407       .  S
C5353      C5354   1.403       .  A
C5353      C5358   1.419       .  A
C5354      C5355   1.393       .  A
C5354      H5363   1.083       .  S
C5355      C5356   1.411       .  A
C5355      S5359   1.796       .  S
C5356      C5357   1.404       .  A
C5357      C5358   1.405       .  A
C5357      H5364   1.083       .  S
C5358      S5360   1.801       .  S
S5359      H5362   1.400       .  S
S5360      H5361   1.407       .  S
C5365      C5366   1.405       .  A
C5365      C5370   1.413       .  A
C5366      C5367   1.404       .  A
C5366      H5375   1.084       .  S
C5367      C5368   1.421       .  A
C5367      S5371   1.801       .  S
C5368      C5369   1.408       .  A
C5369      C5370   1.394       .  A
C5369      H5376   1.084       .  S
C5370      S5372   1.802       .  S
S5371      H5374   1.393       .  S
S5372      H5373   1.407       .  S
C5377      C5378   1.401       .  A
C5377      C5382   1.415       .  A
C5378      C5379   1.394       .  A
C5378      H5387   1.084       .  S
C5379      C5380   1.417       .  A
C5379      S5383   1.801       .  S
C5380      C5381   1.407       .  A
C5381      C5382   1.403       .  A
C5381      H5388   1.082       .  S
C5382      S5384   1.802       .  S
S5383      H5386   1.400       .  S
S5384      H5385   1.407       .  S
C5389      C5390   1.407       .  A
C5389      C5394   1.414       .  A
C5390      C5391   1.404       .  A
C5390      H5399   1.083       .  S
C5391      C5392   1.416       .  A
C5391      S5395   1.805       .  S
C5392      C5393   1.404       .  A
C5393      C5394   1.393       .  A
C5393      H5400   1.083       .  S
C5394      S5396   1.803       .  S
S5395      H5398   1.403       .  S
S5396      H5397   1.407       .  S
C5401      C5402   1.403       .  A
C5401      C5406   1.416       .  A
C5402      C5403   1.396       .  A
C5402      H5411   1.083       .  S
C5403      C5404   1.413       .  A
C5403      S5407   1.802       .  S
C5404      C5405   1.404       .  A
C5405      C5406   1.401       .  A
C5405      H5412   1.082       .  S
C5406      S5408   1.801       .  S
S5407      H5410   1.407       .  S
S5408      H5409   1.407       .  S
C5413      C5414   1.403       .  A
C5413      C5418   1.413       .  A
C5414      C5415   1.396       .  A
C5414      H5423   1.083       .  S
C5415      C5416   1.417       .  A
C5415      S5419   1.803       .  S
C5416      C5417   1.407       .  A
C5417      C5418   1.399       .  A
C5417      H5424   1.079       .  S
C5418      S5420   1.802       .  S
S5419      H5422   1.403       .  S
S5420      H5421   1.407       .  S
C5425      C5426   1.408       .  A
C5425      C5430   1.416       .  A
C5426      C5427   1.399       .  A
C5426      H5435   1.082       .  S
C5427      C5428   1.412       .  A
C5427      S5431   1.796       .  S
C5428      C5429   1.403       .  A
C5429      C5430   1.396       .  A
C5429      H5436   1.078       .  S
C5430      S5432   1.802       .  S
S5431      H5434   1.401       .  S
S5432      H5433   1.407       .  S
C5437      C5438   1.405       .  A
C5437      C5442   1.412       .  A
C5438      C5439   1.403       .  A
C5438      H5447   1.084       .  S
C5439      C5440   1.420       .  A
C5439      S5443   1.802       .  S
C5440      C5441   1.408       .  A
C5441      C5442   1.394       .  A
C5441      H5448   1.084       .  S
C5442      S5444   1.802       .  S
S5443      H5446   1.393       .  S
S5444      H5445   1.407       .  S
C5449      C5450   1.399       .  A
C5449      C5454   1.410       .  A
C5450      C5451   1.394       .  A
C5450      H5459   1.081       .  S
C5451      C5452   1.418       .  A
C5451      S5455   1.802       .  S
C5452      C5453   1.409       .  A
C5453      C5454   1.400       .  A
C5453      H5460   1.081       .  S
C5454      S5456   1.796       .  S
S5455      H5458   1.407       .  S
S5456      H5457   1.405       .  S
C5461      C5462   1.404       .  A
C5461      C5466   1.412       .  A
C5462      C5463   1.406       .  A
C5462      H5471   1.082       .  S
C5463      C5464   1.417       .  A
C5463      S5467   1.802       .  S
C5464      C5465   1.407       .  A
C5465      C5466   1.394       .  A
C5465      H5472   1.084       .  S
C5466      S5468   1.802       .  S
S5467      H5470   1.406       .  S
S5468      H5469   1.407       .  S
