geometry optimzed in LAMMPS
_audit_creation_date              2020-12-01 
_audit_creation_method            'lammps2cif' 
_symmetry_space_group_name_H-M    'P1' 
_symmetry_Int_Tables_number       1 
_symmetry_cell_setting            triclinic 
loop_ 
_symmetry_equiv_pos_as_xyz 
  x,y,z 
_cell_length_a                    62.80784557 
_cell_length_b                    62.760451618759625 
_cell_length_c                    49.79908683483075 
_cell_angle_alpha                 89.50634767450869 
_cell_angle_beta                  89.8848977816857 
_cell_angle_gamma                 125.32122097104647 
loop_ 
_atom_site_label 
_atom_site_type_symbol 
_atom_site_fract_x 
_atom_site_fract_y 
_atom_site_fract_z 
_atom_site_charge 
N1          N  0.46526738  0.92147376  0.02526881    -0.02800
C2          C  0.46991865  0.90518699  0.01300980    -0.00200
C3          C  0.45054618  0.87947337  0.01969751    -0.23100
C4          C  0.43355797  0.87978888  0.03671146    -0.23300
C5          C  0.44292705  0.90564512  0.03981261    -0.00300
H6          H  0.44921270  0.86230353  0.01329203     0.13400
H7          H  0.41598078  0.86293496  0.04555901     0.13500
N8          N  0.52076569  0.46027647  0.69136531    -0.02800
C9          C  0.54338834  0.47245439  0.67693837    -0.00200
C10         C  0.54895156  0.45484018  0.67009414    -0.23100
C11         C  0.52939868  0.43116394  0.68069737    -0.23300
C12         C  0.51241057  0.43492847  0.69370659    -0.00300
H13         H  0.56618317  0.45907296  0.65971982     0.13400
H14         H  0.52793792  0.41314667  0.67951645     0.13500
N15         N  0.04249712  0.50260566  0.40741691    -0.02800
C16         C  0.05855099  0.49905565  0.42208008    -0.00200
C17         C  0.08431488  0.51956000  0.41785594    -0.23100
C18         C  0.08438016  0.53618208  0.39984239    -0.23300
C19         C  0.05863197  0.52548702  0.39355692    -0.00300
H20         H  0.10134750  0.52138823  0.42572483     0.13400
H21         H  0.10151032  0.55386765  0.39149497     0.13500
N22         N  0.35164974  0.08195510  0.01348349    -0.26700
N23         N  0.36676285  0.07985215  0.02993814    -0.34500
C24         C  0.35287317  0.06623668  0.05181483     0.01700
C25         C  0.32752846  0.05889144  0.04883991     0.07700
C26         C  0.32756101  0.06944281  0.02424630    -0.05400
H27         H  0.35958051  0.05882698  0.06678183     0.08400
H28         H  0.31084302  0.06610000  0.01374049     0.09600
Cu29       Cu  0.40156767  0.08668826  0.01729990     0.44200
Cu30       Cu  0.36405274  0.09731633  0.97542533     0.42000
Cu31       Cu  0.42430930  0.10940285  0.94833838     0.43900
N32         N  0.42730532  0.08195098  0.99703365    -0.34000
N33         N  0.43540230  0.08955048  0.97199930    -0.28300
C34         C  0.45014087  0.08120333  0.96489357    -0.04400
C35         C  0.45114072  0.06742622  0.98639599     0.07800
C36         C  0.43652094  0.06865111  0.00641839     0.01600
H37         H  0.45922112  0.08472773  0.94535112     0.09300
H38         H  0.43287352  0.06077887  0.02659153     0.08300
N39         N  0.40407097  0.12308726  0.93037780    -0.35500
N40         N  0.38177982  0.11743105  0.94028843    -0.27700
C41         C  0.37268664  0.12778988  0.92447372    -0.02900
C42         C  0.38986343  0.14071291  0.90330632     0.05700
C43         C  0.40978386  0.13758350  0.90777393     0.03800
H44         H  0.35500470  0.12640289  0.92857718     0.08900
H45         H  0.42683913  0.14485829  0.89527308     0.07700
N46         N  0.31702236  0.20350819  0.72095940    -0.26700
N47         N  0.32843571  0.22291205  0.70322718    -0.34500
C48         C  0.31000778  0.22210568  0.68872958     0.01700
C49         C  0.28568677  0.20175877  0.69818450     0.07700
C50         C  0.29097836  0.19024048  0.71851334    -0.05400
H51         H  0.31391319  0.23798973  0.67584437     0.08400
H52         H  0.27707530  0.17571614  0.73287327     0.09600
Cu53       Cu  0.36605414  0.25624198  0.70715455     0.44200
Cu54       Cu  0.33669338  0.20056166  0.75257350     0.42000
Cu55       Cu  0.39653028  0.26172010  0.77036255     0.43900
N56         N  0.39692345  0.29154934  0.72228247    -0.34000
N57         N  0.40760405  0.29358572  0.74579967    -0.28300
C58         C  0.42645474  0.31889216  0.75029964    -0.04400
C59         C  0.42771057  0.33368685  0.72864431     0.07800
C60         C  0.40862228  0.31553563  0.71124198     0.01600
H61         H  0.43861108  0.32591081  0.76794998     0.09300
H62         H  0.40405597  0.31926459  0.69160278     0.08300
N63         N  0.38217428  0.22669301  0.79055892    -0.35500
N64         N  0.36025789  0.20433527  0.78401419    -0.27700
C65         C  0.35645607  0.18540377  0.80062281    -0.02900
C66         C  0.37707403  0.19624198  0.81846270     0.05700
C67         C  0.39295915  0.22254242  0.81146011     0.03800
H68         H  0.34003673  0.16512353  0.79946139     0.08900
H69         H  0.41088189  0.23770915  0.82097238     0.07700
N70         N  0.01370022  0.66973932  0.26933803    -0.26700
N71         N  0.00026457  0.64422932  0.27309672    -0.34500
C72         C  0.97564575  0.63490070  0.27979163     0.01700
C73         C  0.97334597  0.65550157  0.28088108     0.07700
C74         C  0.99797937  0.67742142  0.27421321    -0.05400
H75         H  0.96147243  0.61516886  0.28698730     0.08400
H76         H  0.00451643  0.69757410  0.27505243     0.09600
Cu77       Cu  0.01717048  0.62449219  0.27856274     0.44200
Cu78       Cu  0.05352152  0.69234813  0.26165282     0.42000
Cu79       Cu  0.08688136  0.66044677  0.27198574     0.43900
N80         N  0.03790611  0.61091292  0.29362460    -0.34000
N81         N  0.06348156  0.62374425  0.29099371    -0.28300
C82         C  0.07104027  0.61046651  0.30441754    -0.04400
C83         C  0.04920332  0.58845725  0.31632947     0.07800
C84         C  0.02859540  0.58952611  0.30913021     0.01600
H85         H  0.09111139  0.61703566  0.30650499     0.09300
H86         H  0.00837510  0.57605616  0.31516902     0.08300
N87         N  0.10464069  0.69796290  0.25527171    -0.35500
N88         N  0.09243442  0.70933518  0.25220274    -0.27700
C89         C  0.10903447  0.73328665  0.24145398    -0.02900
C90         C  0.13304572  0.73752553  0.23751131     0.05700
C91         C  0.12944418  0.71456554  0.24635500     0.03800
H92         H  0.10369110  0.74639568  0.23637595     0.08900
H93         H  0.14389607  0.71036529  0.24662195     0.07700
N94         N  0.26662614  0.92998299  0.11934850    -0.26700
N95         N  0.28101450  0.93348984  0.09814847    -0.34500
C96         C  0.28336165  0.95204697  0.08225657     0.01700
C97         C  0.27016677  0.96108864  0.09407384     0.07700
C98         C  0.25994958  0.94687508  0.11781230    -0.05400
H99         H  0.29638171  0.96059268  0.06506338     0.08400
H100        H  0.24995471  0.94976178  0.13351258     0.09600
Cu101      Cu  0.30335116  0.91929072  0.09541156     0.44200
Cu102      Cu  0.25887605  0.90305634  0.14910567     0.42000
Cu103      Cu  0.29712329  0.87509892  0.14526637     0.43900
N104        N  0.33054234  0.91114053  0.09981361    -0.34000
N105        N  0.32880793  0.89499692  0.11829013    -0.28300
C106        C  0.34947324  0.89382096  0.11543726    -0.04400
C107        C  0.36505521  0.91022431  0.09417876     0.07800
C108        C  0.35221524  0.92081289  0.08493308     0.01600
H109        H  0.35224941  0.88112806  0.12731406     0.09300
H110        H  0.35791298  0.93435519  0.06833699     0.08300
N111        N  0.26209173  0.85853453  0.16697817    -0.35500
N112        N  0.24904400  0.86913460  0.16865604    -0.27700
C113        C  0.22655482  0.85272131  0.18206928    -0.02900
C114        C  0.22493210  0.83042852  0.18920229     0.05700
C115        C  0.24801774  0.83497333  0.17939540     0.03800
H116        H  0.21175563  0.85622088  0.18497754     0.08900
H117        H  0.25403297  0.82197235  0.18058398     0.07700
N118        N  0.53110798  0.03303523  0.02252429    -0.02800
C119        C  0.52777438  0.05023426  0.00993639    -0.00200
C120        C  0.54934318  0.07555643  0.01370299    -0.23100
C121        C  0.56650758  0.07407256  0.02898111    -0.23300
C122        C  0.55498024  0.04790285  0.03413419    -0.00300
H123        H  0.55186234  0.09333362  0.00696040     0.13400
H124        H  0.58556886  0.09034476  0.03539649     0.13500
N125        N  0.04418869  0.29508330  0.46518076    -0.26700
N126        N  0.04658973  0.30984219  0.44472361    -0.34500
C127        C  0.03023784  0.29454437  0.42526411     0.01700
C128        C  0.01640817  0.26882173  0.43397947     0.07700
C129        C  0.02585114  0.26990302  0.45944538    -0.05400
H130        H  0.02575223  0.30181860  0.40798811     0.08400
H131        H  0.01806686  0.25394034  0.47376695     0.09600
Cu132      Cu  0.06292449  0.34911218  0.44842565     0.44200
Cu133      Cu  0.06284700  0.31113878  0.50110721     0.42000
Cu134      Cu  0.08879204  0.37981332  0.51215752     0.43900
N135        N  0.06527768  0.38184051  0.46027864    -0.34000
N136        N  0.07374968  0.39290939  0.48392788    -0.28300
C137        C  0.07061415  0.41240296  0.48560864    -0.04400
C138        C  0.05948797  0.41359237  0.46184315     0.07800
C139        C  0.05659074  0.39377477  0.44638159     0.01600
H140        H  0.07611730  0.42478836  0.50290616     0.09300
H141        H  0.04897743  0.38822351  0.42631451     0.08300
N142        N  0.10025235  0.35918414  0.53395580    -0.35500
N143        N  0.08953346  0.33403597  0.53042989    -0.27700
C144        C  0.10148986  0.32653576  0.54608707    -0.02900
C145        C  0.12095255  0.34785589  0.56022441     0.05700
C146        C  0.11973024  0.36834731  0.55192015     0.03800
H147        H  0.09746751  0.30729263  0.54568681     0.08900
H148        H  0.13251055  0.38853217  0.55791512     0.07700
N149        N  0.22759299  0.27626862  0.67854790    -0.26700
N150        N  0.24332544  0.28600009  0.69937773    -0.34500
C151        C  0.24481297  0.26735571  0.71042522     0.01700
C152        C  0.22977661  0.24482131  0.69557146     0.07700
C153        C  0.21911197  0.25122919  0.67542371    -0.05400
H154        H  0.25894595  0.27108555  0.72548582     0.08400
H155        H  0.20814100  0.23944876  0.65832534     0.09600
Cu156      Cu  0.26991636  0.32562707  0.70533261     0.44200
Cu157      Cu  0.22220148  0.29925614  0.65352050     0.42000
Cu158      Cu  0.27011063  0.36947678  0.65763516     0.43900
N159        N  0.30199628  0.36361407  0.69849352    -0.34000
N160        N  0.30256714  0.37945064  0.68036929    -0.28300
C161        C  0.32677321  0.40182748  0.67954315    -0.04400
C162        C  0.34222459  0.39997445  0.69800282     0.07800
C163        C  0.32569385  0.37545120  0.70969188     0.01600
H164        H  0.33245478  0.41842890  0.66687605     0.09300
H165        H  0.33058873  0.36664580  0.72499053     0.08300
N166        N  0.23435048  0.35201560  0.63807184    -0.35500
N167        N  0.21744347  0.32640736  0.63634583    -0.27700
C168        C  0.19591625  0.32093129  0.62391415    -0.02900
C169        C  0.19905265  0.34411773  0.61742115     0.05700
C170        C  0.22383812  0.36350125  0.62666827     0.03800
H171        H  0.17898328  0.30130485  0.62033275     0.08900
H172        H  0.23321203  0.38435334  0.62613566     0.07700
N173        N  0.76099183  0.69391014  0.66238662    -0.26700
N174        N  0.74133808  0.68323107  0.67974509    -0.34500
C175        C  0.73834767  0.70159603  0.68809856     0.01700
C176        C  0.75642570  0.72485947  0.67497932     0.07700
C177        C  0.77046054  0.71923604  0.65873087    -0.05400
H178        H  0.72160020  0.69736770  0.69949882     0.08400
H179        H  0.78452055  0.73178522  0.64333091     0.09600
Cu180      Cu  0.71258339  0.64347955  0.68373148     0.44200
Cu181      Cu  0.77063507  0.67262930  0.64053360     0.42000
Cu182      Cu  0.71839603  0.60413863  0.63720975     0.43900
N183        N  0.68147197  0.60566473  0.67473006    -0.34000
N184        N  0.68372121  0.59165663  0.65682498    -0.28300
C185        C  0.66016814  0.56931296  0.65286754    -0.04400
C186        C  0.64201419  0.56908133  0.66899775     0.07800
C187        C  0.65630554  0.59246287  0.68277529     0.01600
H188        H  0.65650375  0.55435395  0.63903953     0.09300
H189        H  0.64884958  0.59984500  0.69670172     0.08300
N190        N  0.75469250  0.62071370  0.61921348    -0.35500
N191        N  0.77387245  0.64580793  0.62050444    -0.27700
C192        C  0.79456674  0.65037606  0.60667907    -0.02900
C193        C  0.78821169  0.62698615  0.59612449     0.05700
C194        C  0.76265106  0.60863087  0.60448555     0.03800
H195        H  0.81287813  0.66940383  0.60450275     0.08900
H196        H  0.75034405  0.58811764  0.59969382     0.07700
N197        N  0.88828685  0.61921769  0.40473555    -0.26700
N198        N  0.88406417  0.59766651  0.39486628    -0.34500
C199        C  0.89081779  0.60143620  0.36886654     0.01700
C200        C  0.90021964  0.62680504  0.36176119     0.07700
C201        C  0.89836470  0.63763528  0.38512941    -0.05400
H202        H  0.89191758  0.58777360  0.35691556     0.08400
H203        H  0.90529628  0.65771651  0.38812168     0.09600
Cu204      Cu  0.87889568  0.56800600  0.41846316     0.44200
Cu205      Cu  0.88233590  0.62138536  0.44536429     0.42000
Cu206      Cu  0.88080919  0.57220847  0.48960183     0.43900
N207        N  0.89098044  0.55011542  0.44241445    -0.34000
N208        N  0.89245120  0.55169133  0.46883783    -0.28300
C209        C  0.90278026  0.53913446  0.47775956    -0.04400
C210        C  0.90855168  0.52980613  0.45565998     0.07800
C211        C  0.90053878  0.53704489  0.43373161     0.01600
H212        H  0.90599984  0.53709204  0.49867185     0.09300
H213        H  0.90115074  0.53279582  0.41286176     0.08300
N214        N  0.86806399  0.59521055  0.50073287    -0.35500
N215        N  0.86941142  0.61313269  0.48505851    -0.27700
C216        C  0.85874462  0.62355183  0.49800957    -0.02900
C217        C  0.85013937  0.61172105  0.52302490     0.05700
C218        C  0.85624665  0.59373166  0.52400570     0.03800
H219        H  0.85628357  0.63781481  0.48922535     0.08900
H220        H  0.85206966  0.58027194  0.54028083     0.07700
N221        N  0.93170757  0.44216862  0.42170700    -0.02800
C222        C  0.91734872  0.44661823  0.43819251    -0.00200
C223        C  0.89184065  0.42463875  0.43967527    -0.23100
C224        C  0.89028881  0.40625284  0.42352543    -0.23300
C225        C  0.91484916  0.41745889  0.41269931    -0.00300
H226        H  0.87560702  0.42275952  0.44991714     0.13400
H227        H  0.87300047  0.38687904  0.41971924     0.13500
N228        N  0.46607347  0.50327803  0.72447911    -0.02800
C229        C  0.47704604  0.52711577  0.73564950    -0.00200
C230        C  0.45866669  0.52783101  0.75008719    -0.23100
C231        C  0.43557328  0.50363191  0.74796248    -0.23300
C232        C  0.44062875  0.48893037  0.73234164    -0.00300
H233        H  0.46153644  0.54454630  0.76008561     0.13400
H234        H  0.41682063  0.49772915  0.75589403     0.13500
N235        N  0.66546273  0.76188110  0.68411157    -0.26700
N236        N  0.65482120  0.73937134  0.67179009    -0.34500
C237        C  0.67367757  0.73954921  0.65882321     0.01700
C238        C  0.69748933  0.76291480  0.66382319     0.07700
C239        C  0.69139902  0.77665781  0.67981203    -0.05400
H240        H  0.67099827  0.72218657  0.65079218     0.08400
H241        H  0.70509876  0.79418190  0.69086207     0.09600
Cu242      Cu  0.61889005  0.70570550  0.68282424     0.44200
Cu243      Cu  0.64625632  0.76806142  0.71317211     0.42000
Cu244      Cu  0.59300195  0.71020799  0.74637152     0.43900
N245        N  0.59019678  0.67339694  0.70520701    -0.34000
N246        N  0.58185154  0.67523321  0.72889692    -0.28300
C247        C  0.56502582  0.65111692  0.73919253    -0.04400
C248        C  0.56255414  0.63311655  0.72119375     0.07800
C249        C  0.57862947  0.64796229  0.69972162     0.01600
H250        H  0.55480864  0.64699735  0.75813904     0.09300
H251        H  0.58198553  0.64083877  0.68164450     0.08300
N252        N  0.60723065  0.74780201  0.75851534    -0.35500
N253        N  0.62662857  0.76885005  0.74592008    -0.27700
C254        C  0.63208151  0.79020051  0.75862619    -0.02900
C255        C  0.61537887  0.78235168  0.78046516     0.05700
C256        C  0.59971212  0.75527952  0.77965758     0.03800
H257        H  0.64723494  0.80995865  0.75235025     0.08900
H258        H  0.58452318  0.74199316  0.79382462     0.07700
N259        N  0.67656178  0.92610081  0.95587393    -0.26700
N260        N  0.66494093  0.93177593  0.97356694    -0.34500
C261        C  0.68268413  0.94898767  0.99104052     0.01700
C262        C  0.70679180  0.95478900  0.98383109     0.07700
C263        C  0.70225280  0.94005269  0.96123886    -0.05400
H264        H  0.67893184  0.95896325  0.00587798     0.08400
H265        H  0.71672984  0.94095946  0.94849035     0.09600
Cu266      Cu  0.62751242  0.92164828  0.96876189     0.44200
Cu267      Cu  0.65648959  0.90228519  0.92385207     0.42000
Cu268      Cu  0.58999267  0.88412054  0.91103947     0.43900
N269        N  0.59221547  0.91484535  0.95855381    -0.34000
N270        N  0.57833213  0.90138740  0.93748126    -0.28300
C271        C  0.55614950  0.90009467  0.93747134    -0.04400
C272        C  0.55597058  0.91335127  0.95976960     0.07800
C273        C  0.57941059  0.92247611  0.97241569     0.01600
H274        H  0.54121575  0.88970985  0.92250228     0.09300
H275        H  0.58639507  0.93302708  0.99104103     0.08300
N276        N  0.60780696  0.86952750  0.89002523    -0.35500
N277        N  0.63176808  0.87660553  0.89489088    -0.27700
C278        C  0.63768008  0.86409176  0.87820053    -0.02900
C279        C  0.61654954  0.84819164  0.86187248     0.05700
C280        C  0.59783832  0.85205324  0.86994752     0.03800
H281        H  0.65607395  0.86627164  0.87824546     0.08900
H282        H  0.57862673  0.84323806  0.86159415     0.07700
N283        N  0.89198924  0.21631677  0.35808135    -0.26700
N284        N  0.89225828  0.23047277  0.37766691    -0.34500
C285        C  0.90640023  0.23084946  0.39803910     0.01700
C286        C  0.91606650  0.21669867  0.39078548     0.07700
C287        C  0.90631434  0.20758848  0.36531121    -0.05400
H288        H  0.91305774  0.24423154  0.41464545     0.08400
H289        H  0.91212297  0.19843685  0.35169806     0.09600
Cu290      Cu  0.88460080  0.25784090  0.37102679     0.44200
Cu291      Cu  0.87866931  0.21643174  0.32025290     0.42000
Cu292      Cu  0.87235050  0.26971971  0.30341324     0.43900
N293        N  0.89129550  0.29259407  0.35834231    -0.34000
N294        N  0.88743877  0.29766973  0.33373434    -0.28300
C295        C  0.89534396  0.32275544  0.33253941    -0.04400
C296        C  0.90485849  0.33396489  0.35760899     0.07800
C297        C  0.90187103  0.31407918  0.37327198     0.01600
H298        H  0.89439921  0.33207529  0.31466741     0.09300
H299        H  0.90661667  0.31490941  0.39427675     0.08300
N300        N  0.85987127  0.23763147  0.27885019    -0.35500
N301        N  0.86344256  0.21930479  0.28478176    -0.27700
C302        C  0.85363873  0.20162685  0.26511583    -0.02900
C303        C  0.84304308  0.20881292  0.24592110     0.05700
C304        C  0.84712219  0.23163812  0.25530472     0.03800
H305        H  0.85316620  0.18411637  0.26541928     0.08900
H306        H  0.84109499  0.24290851  0.24583804     0.07700
N307        N  0.76619227  0.07801656  0.05357892    -0.26700
N308        N  0.74790616  0.07271284  0.03623949    -0.34500
C309        C  0.74768296  0.05827443  0.01645102     0.01700
C310        C  0.76606395  0.05335388  0.02185587     0.07700
C311        C  0.77757186  0.06635221  0.04559743    -0.05400
H312        H  0.73204524  0.04797684  0.00206696     0.08400
H313        H  0.79064705  0.06455936  0.05790283     0.09600
Cu314      Cu  0.71646555  0.07367857  0.04587552     0.44200
Cu315      Cu  0.77000091  0.09550760  0.08997974     0.42000
Cu316      Cu  0.71161355  0.08892329  0.11406269     0.43900
N317        N  0.68183314  0.06373598  0.06325918    -0.34000
N318        N  0.67972434  0.06857595  0.08850293    -0.28300
C319        C  0.65484447  0.05994134  0.09337673    -0.04400
C320        C  0.64045317  0.04900680  0.07004941     0.07800
C321        C  0.65843579  0.05185448  0.05142682     0.01600
H322        H  0.64806927  0.06244277  0.11226433     0.09300
H323        H  0.65529623  0.04708058  0.03035611     0.08300
N324        N  0.74784757  0.11165136  0.13262029    -0.35500
N325        N  0.76893850  0.11404436  0.12361771    -0.27700
C326        C  0.78928741  0.13094685  0.13908376    -0.02900
C327        C  0.78083961  0.13984897  0.15901594     0.05700
C328        C  0.75427848  0.12695605  0.15420992     0.03800
H329        H  0.80891360  0.13661122  0.13556309     0.08900
H330        H  0.74038585  0.12832775  0.16540816     0.07700
C331        C  0.82229546  0.16540726  0.18536840    -0.20700
C332        C  0.79707745  0.15885410  0.18054243    -0.08700
C333        C  0.78798949  0.17058606  0.19655885     0.30100
C334        C  0.80353939  0.18778255  0.21704282    -0.20700
C335        C  0.82819346  0.19338475  0.22224131    -0.08700
C336        C  0.83762779  0.18235612  0.20598291     0.30200
F337        F  0.86176728  0.18802868  0.21000049    -0.19200
H338        H  0.83017657  0.15703197  0.17362502     0.18500
H339        H  0.79591740  0.19604542  0.22948911     0.18500
F340        F  0.76415556  0.16559715  0.19272311    -0.19200
C341        C  0.73590202  0.98254391  0.02033541    -0.20700
C342        C  0.73148981  0.97845335  0.99269021    -0.08700
C343        C  0.74596382  0.99970485  0.97479338     0.29800
C344        C  0.76123828  0.02509408  0.98475240    -0.20700
C345        C  0.76251141  0.02933185  0.01250317    -0.08700
C346        C  0.75159374  0.00786697  0.03028680     0.30200
F347        F  0.75234847  0.01124280  0.05724291    -0.19200
H348        H  0.72480371  0.96632495  0.03434434     0.18500
H349        H  0.76940304  0.04141866  0.97080622     0.18500
F350        F  0.74207633  0.99630167  0.94791516    -0.19200
C351        C  0.59206254  0.79168274  0.81403021    -0.20700
C352        C  0.61535389  0.79931002  0.80091861    -0.08700
C353        C  0.63866717  0.82319731  0.80771364     0.30100
C354        C  0.63858436  0.83899394  0.82713161    -0.20700
C355        C  0.61538546  0.83146781  0.84030182    -0.08700
C356        C  0.59198089  0.80767150  0.83345894     0.30200
F357        F  0.56924660  0.79937620  0.84615063    -0.19200
H358        H  0.57387937  0.77336620  0.80916326     0.18500
H359        H  0.65688531  0.85721994  0.83191867     0.18500
F360        F  0.66183506  0.83095538  0.79645626    -0.19200
C361        C  0.53082278  0.58907238  0.70139758    -0.20700
C362        C  0.54471335  0.60428796  0.72377738    -0.08700
C363        C  0.53930354  0.59202516  0.74911509     0.30100
C364        C  0.51883199  0.56563632  0.75230072    -0.20700
C365        C  0.50345907  0.55098173  0.73035726    -0.08700
C366        C  0.51012792  0.56266530  0.70466092     0.30200
F367        F  0.49478413  0.54956812  0.68330822    -0.19200
H368        H  0.53454387  0.59811097  0.68171666     0.18500
H369        H  0.51376818  0.55706886  0.77230181     0.18500
F370        F  0.55305220  0.60580603  0.77103770    -0.19200
C371        C  0.90776210  0.39510408  0.36965518    -0.20700
C372        C  0.92056896  0.40302572  0.39442118    -0.08700
C373        C  0.93229068  0.39122652  0.40432277     0.30100
C374        C  0.92896867  0.37003697  0.39084733    -0.20700
C375        C  0.91374687  0.36020140  0.36742766    -0.08700
C376        C  0.90447749  0.37398720  0.35607431     0.30200
F377        F  0.88997161  0.36562131  0.33342924    -0.19200
H378        H  0.89836858  0.40390479  0.36196227     0.18500
H379        H  0.93696948  0.36031730  0.39973726     0.18500
F380        F  0.94447643  0.39830932  0.42842182    -0.19200
C381        C  0.91088709  0.49437856  0.47524328    -0.20700
C382        C  0.91812434  0.51303009  0.45488568    -0.08700
C383        C  0.93152602  0.51305765  0.43209620     0.30100
C384        C  0.93452621  0.49285936  0.42828085    -0.20700
C385        C  0.92421358  0.47235505  0.44706232    -0.08700
C386        C  0.91383102  0.47414099  0.47137576     0.30200
F387        F  0.90427395  0.45494234  0.49031285    -0.19200
H388        H  0.90091536  0.49411084  0.49314292     0.18500
H389        H  0.94257465  0.49196410  0.40941986     0.18500
F390        F  0.94035534  0.53171993  0.41268050    -0.19200
C391        C  0.74580544  0.74914372  0.64504633    -0.20700
C392        C  0.75221066  0.74539347  0.67083053    -0.08700
C393        C  0.74678852  0.75506908  0.69315517     0.30100
C394        C  0.73193271  0.76495229  0.69009197    -0.20700
C395        C  0.72187410  0.76466395  0.66483461    -0.08700
C396        C  0.73037621  0.75844444  0.64205827     0.30200
F397        F  0.72120084  0.75840155  0.61739003    -0.19200
H398        H  0.74976100  0.74173545  0.62758953     0.18500
H399        H  0.72553052  0.76957609  0.70793652     0.18500
F400        F  0.75293085  0.75180619  0.71826730    -0.19200
C401        C  0.82532555  0.64413993  0.56363041    -0.20700
C402        C  0.80476408  0.62299198  0.57852347    -0.08700
C403        C  0.80025868  0.59831914  0.57607317     0.30100
C404        C  0.81554804  0.59493272  0.55857664    -0.20700
C405        C  0.83545297  0.61592363  0.54304777    -0.08700
C406        C  0.84047573  0.64070269  0.54607640     0.30200
F407        F  0.86026861  0.66176058  0.53232913    -0.19200
H408        H  0.82945853  0.66338505  0.56508589     0.18500
H409        H  0.81136938  0.57568326  0.55669953     0.18500
F410        F  0.78135245  0.57745970  0.59073520    -0.19200
C411        C  0.37800270  0.42170532  0.73188992    -0.20700
C412        C  0.36970368  0.42047994  0.70538251    -0.08700
C413        C  0.38738448  0.43991383  0.68680478     0.30100
C414        C  0.41204885  0.46098098  0.69515326    -0.20700
C415        C  0.41939204  0.46314622  0.72210286    -0.08700
C416        C  0.40245881  0.44299560  0.74027927     0.30200
F417        F  0.40890148  0.44483856  0.76657911    -0.19200
H418        H  0.36491965  0.40706671  0.74664251     0.18500
H419        H  0.42459431  0.47662780  0.68100339     0.18500
F420        F  0.38060625  0.43906080  0.66078313    -0.19200
C421        C  0.96885816  0.23518406  0.44030848    -0.20700
C422        C  0.99077457  0.24805313  0.42318347    -0.08700
C423        C  0.98716851  0.24526284  0.39527786     0.30100
C424        C  0.96208680  0.23201051  0.38468478    -0.20700
C425        C  0.94038763  0.22191319  0.40178603    -0.08700
C426        C  0.94379366  0.22246369  0.42969687     0.30200
F427        F  0.92312004  0.21270762  0.44667114    -0.19200
H428        H  0.97119071  0.23721993  0.46187424     0.18500
H429        H  0.95995323  0.23200328  0.36311094     0.18500
F430        F  0.00800474  0.25733512  0.37825193    -0.19200
C431        C  0.16685337  0.37019716  0.57692544    -0.20700
C432        C  0.14062864  0.34846875  0.57734599    -0.08700
C433        C  0.13369588  0.32632649  0.59258786     0.30100
C434        C  0.15271449  0.32553651  0.60602067    -0.20700
C435        C  0.17918998  0.34668633  0.60461626    -0.08700
C436        C  0.18603453  0.36934954  0.59030460     0.30200
F437        F  0.21130571  0.39018614  0.58800796    -0.19200
H438        H  0.17271427  0.38742419  0.56521316     0.18500
H439        H  0.14654621  0.30809602  0.61745692     0.18500
F440        F  0.10844679  0.30530715  0.59456704    -0.19200
C441        C  0.57788843  0.02626336  0.03306677    -0.20700
C442        C  0.56937213  0.03896895  0.04779683    -0.08700
C443        C  0.58100260  0.05000588  0.07258643     0.30100
C444        C  0.60283690  0.05113855  0.08089418    -0.20700
C445        C  0.61361943  0.04144711  0.06452793    -0.08700
C446        C  0.59983535  0.02737409  0.04135921     0.30200
F447        F  0.60828814  0.01595156  0.02585791    -0.19200
H448        H  0.56912166  0.01763709  0.01389799     0.18500
H449        H  0.61246708  0.06162698  0.09905704     0.18500
F450        F  0.57285762  0.06211558  0.08743418    -0.19200
C451        C  0.95832924  0.67120120  0.31710283    -0.20700
C452        C  0.95223183  0.65414371  0.29571588    -0.08700
C453        C  0.92651065  0.63194373  0.29307875     0.30100
C454        C  0.90833593  0.62492351  0.31353890    -0.20700
C455        C  0.91556038  0.63982062  0.33696650    -0.08700
C456        C  0.94009726  0.66408699  0.33776220     0.30200
F457        F  0.94774151  0.67926827  0.35985897    -0.19200
H458        H  0.97803691  0.68848217  0.31945169     0.18500
H459        H  0.88934260  0.60645510  0.31222617     0.18500
F460        F  0.91976723  0.61555749  0.27211128    -0.19200
C461        C  0.17510089  0.75948955  0.21140710    -0.20700
C462        C  0.15707994  0.76135960  0.22599938    -0.08700
C463        C  0.16205879  0.78614966  0.22903800     0.30100
C464        C  0.18431838  0.80832634  0.21748414    -0.20700
C465        C  0.20217454  0.80650734  0.20243278    -0.08700
C466        C  0.19729354  0.78170160  0.19955653     0.30200
F467        F  0.21324109  0.77855050  0.18443503    -0.19200
H468        H  0.17163472  0.74064454  0.20849113     0.18500
H469        H  0.18756436  0.82705163  0.22049818     0.18500
F470        F  0.14577666  0.78920598  0.24369137    -0.19200
C471        C  0.25155275  0.20403274  0.72012892    -0.20700
C472        C  0.26255314  0.20231094  0.69638418    -0.08700
C473        C  0.25597556  0.20798773  0.67168105     0.30100
C474        C  0.24166704  0.21867931  0.67113367    -0.20700
C475        C  0.23421354  0.22417213  0.69525190    -0.08700
C476        C  0.23760894  0.21507423  0.71961700     0.30200
F477        F  0.22995523  0.21949290  0.74318940    -0.19200
H478        H  0.25626541  0.19972987  0.73941854     0.18500
H479        H  0.23914301  0.22540220  0.65210093     0.18500
F480        F  0.26576053  0.20582654  0.64834609    -0.19200
C481        C  0.48703594  0.06424343  0.97026310    -0.20700
C482        C  0.46657501  0.05622301  0.98856328    -0.08700
C483        C  0.46285204  0.03942965  0.01004204     0.30100
C484        C  0.48132269  0.03410700  0.01504748    -0.20700
C485        C  0.50350079  0.04510216  0.99861183    -0.08700
C486        C  0.50524871  0.05867450  0.97515917     0.30200
F487        F  0.52621149  0.06898743  0.95847401    -0.19200
H488        H  0.49025206  0.07654344  0.95316643     0.18500
H489        H  0.47954712  0.02353074  0.03319555     0.18500
F490        F  0.44220777  0.02915035  0.02709944    -0.19200
C491        C  0.27009404  0.99019192  0.06065438    -0.20700
C492        C  0.27540545  0.98643783  0.08691208    -0.08700
C493        C  0.29288623  0.00823792  0.10255357     0.30100
C494        C  0.30764901  0.03307446  0.09069381    -0.20700
C495        C  0.30504491  0.03635188  0.06325018    -0.08700
C496        C  0.28460174  0.01506838  0.04885241     0.30200
F497        F  0.28112145  0.01736922  0.02237752    -0.19200
H498        H  0.25677078  0.97349070  0.04833127     0.18500
H499        H  0.32316106  0.04925872  0.10214782     0.18500
F500        F  0.29867761  0.00510794  0.12788537    -0.19200
C501        C  0.35904613  0.15943991  0.85151984    -0.20700
C502        C  0.38086963  0.18237888  0.84019142    -0.08700
C503        C  0.40590436  0.19129576  0.84949281     0.30100
C504        C  0.40882127  0.17740532  0.86960905    -0.20700
C505        C  0.38690594  0.15466620  0.88108816    -0.08700
C506        C  0.36193041  0.14575934  0.87172795     0.30200
F507        F  0.34020141  0.12341876  0.88158600    -0.19200
H508        H  0.33954935  0.15207995  0.84489497     0.18500
H509        H  0.42822281  0.18467457  0.87651849     0.18500
F510        F  0.42763865  0.21302581  0.83879256    -0.19200
C511        C  0.00334572  0.48187445  0.43621228    -0.20700
C512        C  0.01442886  0.48753971  0.41033049    -0.08700
C513        C  0.99777813  0.47855044  0.38799499     0.30100
C514        C  0.97059918  0.46409318  0.39171802    -0.20700
C515        C  0.95965273  0.45855142  0.41768811    -0.08700
C516        C  0.97632671  0.46763327  0.43990305     0.30200
F517        F  0.96636434  0.46182239  0.46523374    -0.19200
H518        H  0.01578804  0.48863300  0.45367267     0.18500
H519        H  0.95801538  0.45704419  0.37436711     0.18500
F520        F  0.00767976  0.48309302  0.36271216    -0.19200
C521        C  0.03989986  0.45160826  0.42080027    -0.20700
C522        C  0.05153809  0.47460727  0.43559299    -0.08700
C523        C  0.06230289  0.47580688  0.46070213     0.30100
C524        C  0.06340836  0.45528512  0.46974980    -0.20700
C525        C  0.05401988  0.43310899  0.45387292    -0.08700
C526        C  0.04102495  0.43101145  0.42973493     0.30200
F527        F  0.03022126  0.40968681  0.41399791    -0.19200
H528        H  0.03166118  0.45035115  0.40129143     0.18500
H529        H  0.07300122  0.45760296  0.48859585     0.18500
F530        F  0.07331503  0.49765735  0.47573140    -0.19200
C531        C  0.06612854  0.54519313  0.34820304    -0.20700
C532        C  0.05175494  0.53730872  0.37237577    -0.08700
C533        C  0.03467107  0.54456428  0.37700564     0.30100
C534        C  0.03286551  0.56019119  0.35804413    -0.20700
C535        C  0.04857321  0.56934370  0.33467018    -0.08700
C536        C  0.06475142  0.56113470  0.32965936     0.30200
F537        F  0.07951795  0.56877287  0.30693806    -0.19200
H538        H  0.07936627  0.53978543  0.34413857     0.18500
H539        H  0.02029125  0.56635017  0.36234812     0.18500
F540        F  0.02123367  0.53823053  0.40051131    -0.19200
C541        C  0.48886026  0.48298929  0.73500803    -0.20700
C542        C  0.48002131  0.49267040  0.71579639    -0.08700
C543        C  0.48475767  0.49152905  0.68848617     0.30100
C544        C  0.49854964  0.48124491  0.68063159    -0.20700
C545        C  0.50723007  0.47139890  0.69984304    -0.08700
C546        C  0.50220459  0.47226024  0.72713492     0.30200
F547        F  0.51064758  0.46318067  0.74610099    -0.19200
H548        H  0.48526264  0.48371589  0.75614131     0.18500
H549        H  0.50211121  0.48048793  0.65949688     0.18500
F550        F  0.47582522  0.50005580  0.66948461    -0.19200
C551        C  0.46416965  0.40215296  0.69783502    -0.20700
C552        C  0.48919557  0.41331185  0.70821568    -0.08700
C553        C  0.49281619  0.39954312  0.72790404     0.30100
C554        C  0.47226337  0.37431470  0.73560707    -0.20700
C555        C  0.44768101  0.36205193  0.72359085    -0.08700
C556        C  0.44348124  0.37665948  0.70541857     0.30200
F557        F  0.41973919  0.36607170  0.69421874    -0.19200
H558        H  0.46111585  0.41235180  0.68237632     0.18500
H559        H  0.47624717  0.36378999  0.74962942     0.18500
F560        F  0.51692308  0.40968998  0.73799836    -0.19200
C561        C  0.57401036  0.51704080  0.69585768    -0.20700
C562        C  0.56315182  0.50089526  0.67331929    -0.08700
C563        C  0.57643528  0.51000534  0.64858016     0.30100
C564        C  0.60138048  0.53324436  0.64710026    -0.20700
C565        C  0.61359311  0.54804472  0.67017272    -0.08700
C566        C  0.59910299  0.54059578  0.69433486     0.30200
F567        F  0.61007063  0.55451758  0.71704338    -0.19200
H568        H  0.56427566  0.51022221  0.71520570     0.18500
H569        H  0.61175318  0.53889835  0.62806956     0.18500
F570        F  0.56633189  0.49504078  0.62633374    -0.19200
C571        C  0.48885492  0.96387090  0.04824717    -0.20700
C572        C  0.48114562  0.94968131  0.02428810    -0.08700
C573        C  0.48939311  0.96341121  0.99963705     0.30100
C574        C  0.50526978  0.99082172  0.99912486    -0.20700
C575        C  0.51345551  0.00492124  0.02313373    -0.08700
C576        C  0.50498730  0.99121210  0.04772338     0.30200
F577        F  0.51217719  0.00434604  0.07121249    -0.19200
H578        H  0.48275381  0.95367073  0.06741142     0.18500
H579        H  0.51165799  0.00112710  0.98002211     0.18500
F580        F  0.48185061  0.95031517  0.97611845    -0.19200
C581        C  0.39561685  0.92253759  0.05494216    -0.20700
C582        C  0.38848326  0.91354468  0.08174478    -0.08700
C583        C  0.40306267  0.90643658  0.09564168     0.30100
C584        C  0.42246058  0.90604863  0.08228934    -0.20700
C585        C  0.42823869  0.91334312  0.05512546    -0.08700
C586        C  0.41529726  0.92245219  0.04173722     0.30200
F587        F  0.42002390  0.92902490  0.01526948    -0.19200
H588        H  0.38502146  0.92827686  0.04354290     0.18500
H589        H  0.43225245  0.89889172  0.09287200     0.18500
F590        F  0.39829606  0.89925426  0.12192562    -0.19200
C591        C  0.53903615  0.93062755  0.99273607    -0.20700
C592        C  0.53454828  0.91488369  0.97034806    -0.08700
C593        C  0.50902034  0.89928813  0.96002699     0.30100
C594        C  0.48858736  0.89810613  0.97297285    -0.20700
C595        C  0.49285243  0.91232851  0.99638255    -0.08700
C596        C  0.51844625  0.92921388  0.00579756     0.30200
F597        F  0.52333966  0.94261740  0.02886380    -0.19200
H598        H  0.55834693  0.94331282  0.00107371     0.18500
H599        H  0.46895591  0.88488276  0.96542230     0.18500
F600        F  0.50313128  0.88387612  0.93842923    -0.19200
loop_ 
_geom_bond_atom_site_label_1 
_geom_bond_atom_site_label_2 
_geom_bond_distance 
_geom_bond_site_symmetry_2 
_ccdc_geom_bond_type 
N1            C5   1.361       .  A
N1            C2   1.363       .  A
N1          C572   1.445       .  S
C2            C3   1.384       .  A
C2          C595   1.484   1_554  S
C3            C4   1.370       .  A
C3            H6   1.082       .  S
C4            C5   1.380       .  A
C4            H7   1.082       .  S
C5          C585   1.478       .  S
N8           C12   1.361       .  A
N8            C9   1.360       .  A
N8          C545   1.442       .  S
C9           C10   1.383       .  A
C9          C562   1.480       .  S
C10          C11   1.367       .  A
C10          H13   1.082       .  S
C11          C12   1.380       .  A
C11          H14   1.082       .  S
C12         C552   1.477       .  S
N15          C19   1.365       .  A
N15          C16   1.364       .  A
N15         C512   1.446       .  S
C16          C17   1.380       .  A
C16         C522   1.483       .  S
C17          C18   1.368       .  A
C17          H20   1.082       .  S
C18          C19   1.384       .  A
C18          H21   1.082       .  S
C19         C532   1.486       .  S
N22          C26   1.345       .  A
N22          N23   1.318       .  A
N22         Cu30   2.055   1_554  S
N23          C24   1.340       .  A
N23         Cu29   2.065       .  S
C24          C25   1.386       .  A
C24          H27   1.082       .  S
C25          C26   1.387       .  A
C25         C495   1.476       .  S
C26          H28   1.082       .  S
Cu29         N32   2.067   1_554  S
Cu30         N40   2.055       .  S
Cu31         N33   2.100       .  S
Cu31         N39   2.099       .  S
N32          C36   1.343   1_556  A
N32          N33   1.322       .  A
N33          C34   1.349       .  A
C34          C35   1.395       .  A
C34          H37   1.081       .  S
C35          C36   1.387   1_556  A
C35         C482   1.494       .  S
C36          H38   1.080       .  S
N39          C43   1.352       .  A
N39          N40   1.323       .  A
N40          C41   1.338       .  A
C41          C42   1.379       .  A
C41          H44   1.082       .  S
C42          C43   1.392       .  A
C42         C505   1.483       .  S
C43          H45   1.082       .  S
N46          C50   1.346       .  A
N46          N47   1.321       .  A
N46         Cu54   2.075       .  S
N47          C48   1.342       .  A
N47         Cu53   2.071       .  S
C48          C49   1.385       .  A
C48          H51   1.082       .  S
C49          C50   1.387       .  A
C49         C472   1.476       .  S
C50          H52   1.082       .  S
Cu53         N56   2.075       .  S
Cu54         N64   2.076       .  S
Cu55         N57   2.080       .  S
Cu55         N63   2.079       .  S
N56          C60   1.347       .  A
N56          N57   1.321       .  A
N57          C58   1.344       .  A
C58          C59   1.389       .  A
C58          H61   1.082       .  S
C59          C60   1.389       .  A
C59         C555   1.488       .  S
C60          H62   1.081       .  S
N63          C67   1.346       .  A
N63          N64   1.321       .  A
N64          C65   1.344       .  A
C65          C66   1.388       .  A
C65          H68   1.082       .  S
C66          C67   1.388       .  A
C66         C502   1.486       .  S
C67          H69   1.081       .  S
N70          C74   1.348   1_455  A
N70          N71   1.320       .  A
N70         Cu78   2.073       .  S
N71          C72   1.339   1_455  A
N71         Cu77   2.062       .  S
C72          C73   1.383       .  A
C72          H75   1.082       .  S
C73          C74   1.388       .  A
C73         C452   1.475       .  S
C74          H76   1.082   1_655  S
Cu77         N80   2.064       .  S
Cu78         N88   2.075       .  S
Cu79         N81   2.099       .  S
Cu79         N87   2.099       .  S
N80          C84   1.346       .  A
N80          N81   1.322       .  A
N81          C82   1.348       .  A
C82          C83   1.390       .  A
C82          H85   1.082       .  S
C83          C84   1.382       .  A
C83         C535   1.484       .  S
C84          H86   1.082       .  S
N87          C91   1.350       .  A
N87          N88   1.324       .  A
N88          C89   1.343       .  A
C89          C90   1.385       .  A
C89          H92   1.081       .  S
C90          C91   1.390       .  A
C90         C462   1.489       .  S
C91          H93   1.082       .  S
N94          C98   1.348       .  A
N94          N95   1.320       .  A
N94        Cu102   2.072       .  S
N95          C96   1.338       .  A
N95        Cu101   2.056       .  S
C96          C97   1.379       .  A
C96          H99   1.082       .  S
C97          C98   1.386       .  A
C97         C492   1.467       .  S
C98         H100   1.082       .  S
Cu101       N104   2.058       .  S
Cu102       N112   2.074       .  S
Cu103       N105   2.100       .  S
Cu103       N111   2.102       .  S
N104        C108   1.343       .  A
N104        N105   1.319       .  A
N105        C106   1.349       .  A
C106        C107   1.397       .  A
C106        H109   1.081       .  S
C107        C108   1.386       .  A
C107        C582   1.494       .  S
C108        H110   1.081       .  S
N111        C115   1.349       .  A
N111        N112   1.324       .  A
N112        C113   1.343       .  A
C113        C114   1.386       .  A
C113        H116   1.081       .  S
C114        C115   1.392       .  A
C114        C465   1.493       .  S
C115        H117   1.081       .  S
N118        C122   1.359       .  A
N118        C119   1.361       .  A
N118        C575   1.442       .  S
C119        C120   1.383       .  A
C119        C485   1.478   1_554  S
C120        C121   1.367       .  A
C120        H123   1.082       .  S
C121        C122   1.380       .  A
C121        H124   1.082       .  S
C122        C442   1.475       .  S
N125        C129   1.345       .  A
N125        N126   1.319       .  A
N125       Cu133   2.065       .  S
N126        C127   1.340       .  A
N126       Cu132   2.060       .  S
C127        C128   1.383       .  A
C127        H130   1.082       .  S
C128        C129   1.387       .  A
C128        C422   1.473   1_455  S
C129        H131   1.082       .  S
Cu132       N135   2.064       .  S
Cu133       N143   2.066       .  S
Cu134       N136   2.104       .  S
Cu134       N142   2.105       .  S
N135        C139   1.343       .  A
N135        N136   1.320       .  A
N136        C137   1.350       .  A
C137        C138   1.399       .  A
C137        H140   1.081       .  S
C138        C139   1.389       .  A
C138        C525   1.501       .  S
C139        H141   1.079       .  S
N142        C146   1.352       .  A
N142        N143   1.324       .  A
N143        C144   1.341       .  A
C144        C145   1.382       .  A
C144        H147   1.082       .  S
C145        C146   1.391       .  A
C145        C432   1.485       .  S
C146        H148   1.082       .  S
N149        C153   1.347       .  A
N149        N150   1.320       .  A
N149       Cu157   2.070       .  S
N150        C151   1.340       .  A
N150       Cu156   2.067       .  S
C151        C152   1.384       .  A
C151        H154   1.082       .  S
C152        C153   1.387       .  A
C152        C475   1.475       .  S
C153        H155   1.082       .  S
Cu156       N159   2.071       .  S
Cu157       N167   2.071       .  S
Cu158       N160   2.092       .  S
Cu158       N166   2.092       .  S
N159        C163   1.345       .  A
N159        N160   1.322       .  A
N160        C161   1.347       .  A
C161        C162   1.390       .  A
C161        H164   1.081       .  S
C162        C163   1.386       .  A
C162        C412   1.487       .  S
C163        H165   1.082       .  S
N166        C170   1.350       .  A
N166        N167   1.322       .  A
N167        C168   1.341       .  A
C168        C169   1.386       .  A
C168        H171   1.082       .  S
C169        C170   1.392       .  A
C169        C435   1.491       .  S
C170        H172   1.081       .  S
N173        C177   1.347       .  A
N173        N174   1.323       .  A
N173       Cu181   2.072       .  S
N174        C175   1.340       .  A
N174       Cu180   2.075       .  S
C175        C176   1.383       .  A
C175        H178   1.082       .  S
C176        C177   1.385       .  A
C176        C392   1.471       .  S
C177        H179   1.082       .  S
Cu180       N183   2.076       .  S
Cu181       N191   2.072       .  S
Cu182       N184   2.078       .  S
Cu182       N190   2.077       .  S
N183        C187   1.350       .  A
N183        N184   1.321       .  A
N184        C185   1.342       .  A
C185        C186   1.387       .  A
C185        H188   1.082       .  S
C186        C187   1.388       .  A
C186        C565   1.485       .  S
C187        H189   1.082       .  S
N190        C194   1.345       .  A
N190        N191   1.321       .  A
N191        C192   1.345       .  A
C192        C193   1.388       .  A
C192        H195   1.082       .  S
C193        C194   1.389       .  A
C193        C402   1.488       .  S
C194        H196   1.080       .  S
N197        C201   1.350       .  A
N197        N198   1.319       .  A
N197       Cu205   2.077       .  S
N198        C199   1.337       .  A
N198       Cu204   2.053       .  S
C199        C200   1.382       .  A
C199        H202   1.082       .  S
C200        C201   1.391       .  A
C200        C455   1.479       .  S
C201        H203   1.081       .  S
Cu204       N207   2.056       .  S
Cu205       N215   2.080       .  S
Cu206       N208   2.091       .  S
Cu206       N214   2.093       .  S
N207        C211   1.340       .  A
N207        N208   1.320       .  A
N208        C209   1.351       .  A
C209        C210   1.393       .  A
C209        H212   1.082       .  S
C210        C211   1.382       .  A
C210        C382   1.485       .  S
C211        H213   1.081       .  S
N214        C218   1.348       .  A
N214        N215   1.325       .  A
N215        C216   1.343       .  A
C216        C217   1.383       .  A
C216        H219   1.082       .  S
C217        C218   1.387       .  A
C217        C405   1.482       .  S
C218        H220   1.082       .  S
N221        C225   1.357       .  A
N221        C222   1.363       .  A
N221        C515   1.444       .  S
C222        C223   1.385       .  A
C222        C385   1.482       .  S
C223        C224   1.369       .  A
C223        H226   1.082       .  S
C224        C225   1.379       .  A
C224        H227   1.082       .  S
C225        C372   1.472       .  S
N228        C232   1.359       .  A
N228        C229   1.359       .  A
N228        C542   1.441       .  S
C229        C230   1.382       .  A
C229        C365   1.478       .  S
C230        C231   1.370       .  A
C230        H233   1.082       .  S
C231        C232   1.381       .  A
C231        H234   1.082       .  S
C232        C415   1.476       .  S
N235        C239   1.345       .  A
N235        N236   1.321       .  A
N235       Cu243   2.060       .  S
N236        C237   1.342       .  A
N236       Cu242   2.079       .  S
C237        C238   1.386       .  A
C237        H240   1.082       .  S
C238        C239   1.384       .  A
C238        C395   1.472       .  S
C239        H241   1.082       .  S
Cu242       N245   2.081       .  S
Cu243       N253   2.060       .  S
Cu244       N246   2.079       .  S
Cu244       N252   2.078       .  S
N245        C249   1.348       .  A
N245        N246   1.323       .  A
N246        C247   1.344       .  A
C247        C248   1.385       .  A
C247        H250   1.082       .  S
C248        C249   1.386       .  A
C248        C362   1.482       .  S
C249        H251   1.082       .  S
N252        C256   1.347       .  A
N252        N253   1.321       .  A
N253        C254   1.341       .  A
C254        C255   1.384       .  A
C254        H257   1.081       .  S
C255        C256   1.387       .  A
C255        C352   1.480       .  S
C256        H258   1.082       .  S
N259        C263   1.347       .  A
N259        N260   1.319       .  A
N259       Cu267   2.058       .  S
N260        C261   1.339       .  A
N260       Cu266   2.065       .  S
C261        C262   1.383       .  A
C261        H264   1.082   1_556  S
C262        C263   1.384       .  A
C262        C342   1.469       .  S
C263        H265   1.082       .  S
Cu266       N269   2.066       .  S
Cu267       N277   2.060       .  S
Cu268       N270   2.094       .  S
Cu268       N276   2.093       .  S
N269        C273   1.342       .  A
N269        N270   1.320       .  A
N270        C271   1.348       .  A
C271        C272   1.397       .  A
C271        H274   1.079       .  S
C272        C273   1.388       .  A
C272        C592   1.498       .  S
C273        H275   1.081       .  S
N276        C280   1.350       .  A
N276        N277   1.323       .  A
N277        C278   1.339       .  A
C278        C279   1.380       .  A
C278        H281   1.082       .  S
C279        C280   1.389       .  A
C279        C355   1.481       .  S
C280        H282   1.081       .  S
N283        C287   1.344       .  A
N283        N284   1.319       .  A
N283       Cu291   2.064       .  S
N284        C285   1.341       .  A
N284       Cu290   2.058       .  S
C285        C286   1.384       .  A
C285        H288   1.082       .  S
C286        C287   1.386       .  A
C286        C425   1.473       .  S
C287        H289   1.082       .  S
Cu290       N293   2.061       .  S
Cu291       N301   2.066       .  S
Cu292       N294   2.094       .  S
Cu292       N300   2.095       .  S
N293        C297   1.340       .  A
N293        N294   1.321       .  A
N294        C295   1.350       .  A
C295        C296   1.394       .  A
C295        H298   1.081       .  S
C296        C297   1.383       .  A
C296        C375   1.488       .  S
C297        H299   1.082       .  S
N300        C304   1.349       .  A
N300        N301   1.324       .  A
N301        C302   1.342       .  A
C302        C303   1.379       .  A
C302        H305   1.082       .  S
C303        C304   1.387       .  A
C303        C335   1.476       .  S
C304        H306   1.082       .  S
N307        C311   1.347       .  A
N307        N308   1.320       .  A
N307       Cu315   2.069       .  S
N308        C309   1.339       .  A
N308       Cu314   2.066       .  S
C309        C310   1.383       .  A
C309        H312   1.083       .  S
C310        C311   1.387       .  A
C310        C345   1.471       .  S
C311        H313   1.082       .  S
Cu314       N317   2.070       .  S
Cu315       N325   2.070       .  S
Cu316       N318   2.084       .  S
Cu316       N324   2.085       .  S
N317        C321   1.344       .  A
N317        N318   1.320       .  A
N318        C319   1.346       .  A
C319        C320   1.392       .  A
C319        H322   1.081       .  S
C320        C321   1.388       .  A
C320        C445   1.490       .  S
C321        H323   1.081       .  S
N324        C328   1.346       .  A
N324        N325   1.321       .  A
N325        C326   1.342       .  A
C326        C327   1.389       .  A
C326        H329   1.081       .  S
C327        C328   1.393       .  A
C327        C332   1.494       .  S
C328        H330   1.080       .  S
C331        C332   1.409       .  A
C331        C336   1.397       .  A
C331        H338   1.081       .  S
C332        C333   1.414       .  A
C333        C334   1.401       .  A
C333        F340   1.355       .  S
C334        C335   1.401       .  A
C334        H339   1.083       .  S
C335        C336   1.403       .  A
C336        F337   1.358       .  S
C341        C342   1.401   1_554  A
C341        C346   1.395   1_565  A
C341        H348   1.084       .  S
C342        C343   1.405       .  A
C343        C344   1.398   1_565  A
C343        F350   1.357       .  S
C344        C345   1.403   1_556  A
C344        H349   1.083       .  S
C345        C346   1.406       .  A
C346        F347   1.357       .  S
C351        C352   1.406       .  A
C351        C356   1.402       .  A
C351        H358   1.083       .  S
C352        C353   1.407       .  A
C353        C354   1.393       .  A
C353        F360   1.357       .  S
C354        C355   1.404       .  A
C354        H359   1.083       .  S
C355        C356   1.407       .  A
C356        F357   1.357       .  S
C361        C362   1.405       .  A
C361        C366   1.402       .  A
C361        H368   1.083       .  S
C362        C363   1.407       .  A
C363        C364   1.398       .  A
C363        F370   1.357       .  S
C364        C365   1.403       .  A
C364        H369   1.084       .  S
C365        C366   1.406       .  A
C366        F367   1.356       .  S
C371        C372   1.403       .  A
C371        C376   1.399       .  A
C371        H378   1.084       .  S
C372        C373   1.400       .  A
C373        C374   1.399       .  A
C373        F380   1.358       .  S
C374        C375   1.411       .  A
C374        H379   1.082       .  S
C375        C376   1.408       .  A
C376        F377   1.356       .  S
C381        C382   1.403       .  A
C381        C386   1.400       .  A
C381        H388   1.083       .  S
C382        C383   1.411       .  A
C383        C384   1.400       .  A
C383        F390   1.357       .  S
C384        C385   1.401       .  A
C384        H389   1.083       .  S
C385        C386   1.410       .  A
C386        F387   1.358       .  S
C391        C392   1.404       .  A
C391        C396   1.398       .  A
C391        H398   1.083       .  S
C392        C393   1.404       .  A
C393        C394   1.395       .  A
C393        F400   1.358       .  S
C394        C395   1.404       .  A
C394        H399   1.083       .  S
C395        C396   1.404       .  A
C396        F397   1.357       .  S
C401        C402   1.406       .  A
C401        C406   1.398       .  A
C401        H408   1.082       .  S
C402        C403   1.410       .  A
C403        C404   1.401       .  A
C403        F410   1.356       .  S
C404        C405   1.404       .  A
C404        H409   1.083       .  S
C405        C406   1.406       .  A
C406        F407   1.357       .  S
C411        C412   1.407       .  A
C411        C416   1.399       .  A
C411        H418   1.083       .  S
C412        C413   1.410       .  A
C413        C414   1.402       .  A
C413        F420   1.357       .  S
C414        C415   1.402       .  A
C414        H419   1.083       .  S
C415        C416   1.404       .  A
C416        F417   1.358       .  S
C421        C422   1.404       .  A
C421        C426   1.397       .  A
C421        H428   1.083       .  S
C422        C423   1.405       .  A
C423        C424   1.396       .  A
C423        F430   1.358   1_655  S
C424        C425   1.404       .  A
C424        H429   1.083       .  S
C425        C426   1.404       .  A
C426        F427   1.357       .  S
C431        C432   1.405       .  A
C431        C436   1.405       .  A
C431        H438   1.083       .  S
C432        C433   1.406       .  A
C433        C434   1.396       .  A
C433        F440   1.358       .  S
C434        C435   1.406       .  A
C434        H439   1.082       .  S
C435        C436   1.411       .  A
C436        F437   1.356       .  S
C441        C442   1.401       .  A
C441        C446   1.403       .  A
C441        H448   1.083       .  S
C442        C443   1.404       .  A
C443        C444   1.395       .  A
C443        F450   1.358       .  S
C444        C445   1.406       .  A
C444        H449   1.081       .  S
C445        C446   1.414       .  A
C446        F447   1.356       .  S
C451        C452   1.405       .  A
C451        C456   1.402       .  A
C451        H458   1.083       .  S
C452        C453   1.403       .  A
C453        C454   1.393       .  A
C453        F460   1.358       .  S
C454        C455   1.404       .  A
C454        H459   1.083       .  S
C455        C456   1.408       .  A
C456        F457   1.357       .  S
C461        C462   1.405       .  A
C461        C466   1.404       .  A
C461        H468   1.083       .  S
C462        C463   1.408       .  A
C463        C464   1.398       .  A
C463        F470   1.357       .  S
C464        C465   1.407       .  A
C464        H469   1.082       .  S
C465        C466   1.411       .  A
C466        F467   1.356       .  S
C471        C472   1.404       .  A
C471        C476   1.396       .  A
C471        H478   1.083       .  S
C472        C473   1.406       .  A
C473        C474   1.398       .  A
C473        F480   1.357       .  S
C474        C475   1.404       .  A
C474        H479   1.083       .  S
C475        C476   1.405       .  A
C476        F477   1.358       .  S
C481        C482   1.405       .  A
C481        C486   1.397       .  A
C481        H488   1.081       .  S
C482        C483   1.416   1_556  A
C483        C484   1.403       .  A
C483        F490   1.356       .  S
C484        C485   1.400   1_554  A
C484        H489   1.083       .  S
C485        C486   1.406       .  A
C486        F487   1.358       .  S
C491        C492   1.401       .  A
C491        C496   1.397   1_565  A
C491        H498   1.084       .  S
C492        C493   1.403   1_565  A
C493        C494   1.396       .  A
C493        F500   1.357       .  S
C494        C495   1.404       .  A
C494        H499   1.084       .  S
C495        C496   1.409       .  A
C496        F497   1.357       .  S
C501        C502   1.404       .  A
C501        C506   1.396       .  A
C501        H508   1.083       .  S
C502        C503   1.411       .  A
C503        C504   1.403       .  A
C503        F510   1.356       .  S
C504        C505   1.403       .  A
C504        H509   1.083       .  S
C505        C506   1.409       .  A
C506        F507   1.357       .  S
C511        C512   1.405       .  A
C511        C516   1.398   1_455  A
C511        H518   1.083       .  S
C512        C513   1.408   1_455  A
C513        C514   1.406       .  A
C513        F520   1.356   1_655  S
C514        C515   1.407       .  A
C514        H519   1.083       .  S
C515        C516   1.404       .  A
C516        F517   1.357       .  S
C521        C522   1.400       .  A
C521        C526   1.403       .  A
C521        H528   1.084       .  S
C522        C523   1.404       .  A
C523        C524   1.400       .  A
C523        F530   1.357       .  S
C524        C525   1.408       .  A
C524        H529   1.081       .  S
C525        C526   1.418       .  A
C526        F527   1.355       .  S
C531        C532   1.406       .  A
C531        C536   1.395       .  A
C531        H538   1.084       .  S
C532        C533   1.406       .  A
C533        C534   1.407       .  A
C533        F540   1.357       .  S
C534        C535   1.410       .  A
C534        H539   1.083       .  S
C535        C536   1.402       .  A
C536        F537   1.357       .  S
C541        C542   1.405       .  A
C541        C546   1.402       .  A
C541        H548   1.083       .  S
C542        C543   1.403       .  A
C543        C544   1.403       .  A
C543        F550   1.355       .  S
C544        C545   1.406       .  A
C544        H549   1.083       .  S
C545        C546   1.403       .  A
C546        F547   1.357       .  S
C551        C552   1.402       .  A
C551        C556   1.405       .  A
C551        H558   1.083       .  S
C552        C553   1.405       .  A
C553        C554   1.395       .  A
C553        F560   1.358       .  S
C554        C555   1.404       .  A
C554        H559   1.082       .  S
C555        C556   1.413       .  A
C556        F557   1.357       .  S
C561        C562   1.405       .  A
C561        C566   1.407       .  A
C561        H568   1.083       .  S
C562        C563   1.405       .  A
C563        C564   1.394       .  A
C563        F570   1.358       .  S
C564        C565   1.403       .  A
C564        H569   1.083       .  S
C565        C566   1.410       .  A
C566        F567   1.357       .  S
C571        C572   1.405       .  A
C571        C576   1.400       .  A
C571        H578   1.083       .  S
C572        C573   1.407   1_554  A
C573        C574   1.404       .  A
C573        F580   1.357       .  S
C574        C575   1.404   1_566  A
C574        H579   1.083   1_565  S
C575        C576   1.405   1_545  A
C576        F577   1.356   1_565  S
C581        C582   1.412       .  A
C581        C586   1.402       .  A
C581        H588   1.082       .  S
C582        C583   1.409       .  A
C583        C584   1.399       .  A
C583        F590   1.356       .  S
C584        C585   1.402       .  A
C584        H589   1.084       .  S
C585        C586   1.402       .  A
C586        F587   1.358       .  S
C591        C592   1.413       .  A
C591        C596   1.402   1_556  A
C591        H598   1.081   1_556  S
C592        C593   1.411       .  A
C593        C594   1.398       .  A
C593        F600   1.355       .  S
C594        C595   1.404       .  A
C594        H599   1.084       .  S
C595        C596   1.403   1_556  A
C596        F597   1.357       .  S
