geometry optimzed in LAMMPS
_audit_creation_date              2020-12-01 
_audit_creation_method            'lammps2cif' 
_symmetry_space_group_name_H-M    'P1' 
_symmetry_Int_Tables_number       1 
_symmetry_cell_setting            triclinic 
loop_ 
_symmetry_equiv_pos_as_xyz 
  x,y,z 
_cell_length_a                    50.50484716 
_cell_length_b                    39.01836049435132 
_cell_length_c                    41.71586020569778 
_cell_angle_alpha                 90.00639774658461 
_cell_angle_beta                  131.66289176283797 
_cell_angle_gamma                 90.02731606734595 
loop_ 
_atom_site_label 
_atom_site_type_symbol 
_atom_site_fract_x 
_atom_site_fract_y 
_atom_site_fract_z 
_atom_site_charge 
In1        In  0.58876364  0.18574888  0.45131513     1.36900
C2          C  0.57319315  0.22945172  0.48468597     0.77800
O3          O  0.58719923  0.23527204  0.42398971    -0.60600
O4          O  0.55350882  0.19530237  0.37990665    -0.51500
C5          C  0.65065505  0.16883166  0.47557512     0.70500
O6          O  0.64784213  0.18364695  0.00018780    -0.46400
C7          C  0.56384915  0.13415033  0.46630695     0.75200
O8          O  0.60498512  0.22292676  0.00304901    -0.58300
O9          O  0.54589580  0.14701814  0.42925026    -0.48300
O10         O  0.55040488  0.21359420  0.45009289    -0.54700
C11         C  0.56348787  0.22627904  0.38532164     0.85400
O12         O  0.62152965  0.16140433  0.43877281    -0.56600
O13         O  0.59572583  0.14349597  0.99231680    -0.59900
In14       In  0.95964605  0.18367735  0.10669511     1.36900
C15         C  0.98244348  0.22907472  0.08340701     0.77800
O16         O  0.96031604  0.23134413  0.13576382    -0.60600
O17         O  0.99643038  0.19179783  0.17856425    -0.51500
C18         C  0.89628006  0.16790185  0.07898578     0.70500
O19         O  0.90056269  0.18306748  0.05596199    -0.46400
C20         C  0.97908393  0.13171470  0.08505801     0.75200
O21         O  0.94992538  0.22670612  0.06449859    -0.58300
O22         O  0.99482352  0.13770736  0.12404672    -0.48300
O23         O  0.00255322  0.20793558  0.11340382    -0.54700
C24         C  0.98545455  0.22227024  0.17400748     0.85400
O25         O  0.92465834  0.15957911  0.11599970    -0.56600
O26         O  0.95146399  0.14924960  0.05841284    -0.59900
N27         N  0.53802458  0.11274256  0.03102144    -0.36400
N28         N  0.51844482  0.05907160  0.46991141    -0.56900
N29         N  0.49258394  0.01712107  0.00225945    -0.36400
N30         N  0.51568896  0.06857128  0.06668747    -0.56900
C31         C  0.55399866  0.12487026  0.01696543     0.27200
C32         C  0.55053563  0.13110502  0.06631608     0.27200
C33         C  0.49179266  0.99409157  0.47720978     0.27200
C34         C  0.49074717  0.49914757  0.02855325     0.27200
C35         C  0.52838169  0.08348366  0.45660206     0.35800
C36         C  0.50206097  0.03408457  0.43977038     0.35800
C37         C  0.52289828  0.09764535  0.08893099     0.35800
C38         C  0.49947811  0.04693954  0.07445812     0.35800
C39         C  0.57586081  0.15217749  0.04310411    -0.21700
C40         C  0.57385231  0.15583808  0.07411568    -0.21700
C41         C  0.48937138  0.46124695  0.48761338    -0.21700
C42         C  0.48901611  0.46443284  0.02003046    -0.21700
C43         C  0.51890131  0.07361729  0.41825362    -0.22700
C44         C  0.50204919  0.04262261  0.40747811    -0.22700
C45         C  0.51136840  0.09429031  0.11109733    -0.22700
C46         C  0.49644124  0.06230592  0.10180878    -0.22700
C47         C  0.54820959  0.11322502  0.48020174    -0.18100
C48         C  0.54177463  0.12636591  0.09201575    -0.18100
C49         C  0.48869679  0.01305936  0.05843663    -0.18100
C50         C  0.49043415  0.00219852  0.44307014    -0.18100
H51         H  0.59173808  0.16843954  0.04067857     0.14900
H52         H  0.58816556  0.17466275  0.09964141     0.14900
H53         H  0.48784025  0.43731013  0.47341030     0.14900
H54         H  0.48764453  0.44328689  0.03547917     0.14900
H55         H  0.52399658  0.08686798  0.40006071     0.13100
H56         H  0.49202138  0.02772731  0.37961181     0.13100
H57         H  0.51339663  0.11298482  0.13177811     0.13100
H58         H  0.48475573  0.05172247  0.11391706     0.13100
H59         H  0.51780131  0.09479364  0.01574718     0.26400
H60         H  0.49006370  0.04351516  0.99794499     0.26400
N61         N  0.99869763  0.10559004  0.01557206    -0.36400
N62         N  0.02769908  0.06467127  0.48581982    -0.56900
N63         N  0.04706262  0.01098705  0.04712768    -0.36400
N64         N  0.02181499  0.05406764  0.08036386    -0.56900
C65         C  0.99658460  0.12863213  0.48942784     0.27200
C66         C  0.99426392  0.12305911  0.03982853     0.27200
C67         C  0.06184552  0.49768693  0.03203361     0.27200
C68         C  0.05739748  0.99138258  0.08065370     0.27200
C69         C  0.01224899  0.09005927  0.45619266     0.35800
C70         C  0.03932841  0.04089756  0.47386352     0.35800
C71         C  0.00574894  0.07572675  0.08828344     0.35800
C72         C  0.03052849  0.02558888  0.10413003     0.35800
C73         C  0.99038503  0.16096777  0.49684846    -0.21700
C74         C  0.98938192  0.15753163  0.02882212    -0.21700
C75         C  0.08093750  0.46851992  0.05590154    -0.21700
C76         C  0.07832118  0.46479000  0.08640981    -0.21700
C77         C  0.01487733  0.08259091  0.42590857    -0.22700
C78         C  0.03220117  0.05185329  0.43721607    -0.22700
C79         C  0.00434763  0.06098423  0.11733089    -0.22700
C80         C  0.02012760  0.02939390  0.12749263    -0.22700
C81         C  0.99810606  0.12106390  0.45748355    -0.18100
C82         C  0.99322659  0.10897848  0.07056942    -0.18100
C83         C  0.04890029  0.99660215  0.10665928    -0.18100
C84         C  0.05732520  0.00999213  0.49616715    -0.18100
H85         H  0.98710039  0.18478216  0.48129904     0.14900
H86         H  0.98547120  0.17840515  0.04217504     0.14900
H87         H  0.09525235  0.45101786  0.05219186     0.14900
H88         H  0.09049497  0.44455326  0.11010080     0.14900
H89         H  0.00600828  0.09793303  0.39886022     0.13100
H90         H  0.03890894  0.03936429  0.42029017     0.13100
H91         H  0.99315083  0.07171668  0.12997578     0.13100
H92         H  0.02338870  0.01122229  0.14949138     0.13100
H93         H  0.99886087  0.07916466  0.01318945     0.26400
H94         H  0.02918443  0.03095858  0.03382261     0.26400
In95       In  0.45837737  0.43794474  0.09855239     1.36900
C96         C  0.48366702  0.39358115  0.07786097     0.77800
O97         O  0.44978440  0.46975355  0.04816460    -0.60600
O98         O  0.49051494  0.48587814  0.11287455    -0.51500
C99         C  0.39473954  0.45205776  0.07158389     0.70500
O100        O  0.39930843  0.43314336  0.05100583    -0.46400
C101        C  0.48494536  0.39951158  0.16622734     0.75200
O102        O  0.45081300  0.39518029  0.05769848    -0.58300
O103        O  0.49436949  0.43062523  0.17053701    -0.48300
O104        O  0.50292842  0.41526731  0.10757233    -0.54700
C105        C  0.47557427  0.48970866  0.07378820     0.85400
O106        O  0.42297807  0.46489287  0.10551386    -0.56600
O107        O  0.46124258  0.38946285  0.12809510    -0.59900
In108      In  0.09195828  0.43548218  0.46064965     1.36900
C109        C  0.07411277  0.39361651  0.49261457     0.77800
O110        O  0.10207076  0.47552598  0.00622686    -0.60600
O111        O  0.05254765  0.47721254  0.44254878    -0.51500
C112        C  0.15559952  0.44903176  0.48705651     0.70500
O113        O  0.15076665  0.42899547  0.50654261    -0.46400
C114        C  0.06397621  0.39603969  0.39239674     0.75200
O115        O  0.10628603  0.39909946  0.51151132    -0.58300
O116        O  0.05807907  0.42808575  0.38864531    -0.48300
O117        O  0.05180420  0.40957963  0.45785678    -0.54700
C118        C  0.07127074  0.48788608  0.48078203     0.85400
O119        O  0.12751182  0.46284960  0.45397142    -0.56600
O120        O  0.08472580  0.38517630  0.43041389    -0.59900
In121      In  0.09167258  0.43319013  0.21056814     1.36900
C122        C  0.07611717  0.47630334  0.24433617     0.77800
O123        O  0.08726343  0.48265062  0.18113633    -0.60600
O124        O  0.05535890  0.44124269  0.13853299    -0.51500
C125        C  0.15220107  0.41541790  0.23184765     0.70500
O126        O  0.15091699  0.43157805  0.25704931    -0.46400
C127        C  0.07134791  0.38107151  0.23097492     0.75200
O128        O  0.10738237  0.47407817  0.25857673    -0.58300
O129        O  0.05162600  0.39281832  0.19309994    -0.48300
O130        O  0.05375124  0.45685052  0.21324951    -0.54700
C131        C  0.06416278  0.47254531  0.14288658     0.85400
O132        O  0.12244436  0.40714289  0.19624531    -0.56600
O133        O  0.10262016  0.39239529  0.25560284    -0.59900
In134      In  0.45197137  0.43587776  0.34300686     1.36900
C135        C  0.46768991  0.48118675  0.31127705     0.77800
O136        O  0.45012355  0.48422739  0.36956334    -0.60600
O137        O  0.48803255  0.44660852  0.41425534    -0.51500
C138        C  0.39147547  0.41625778  0.32055235     0.70500
O139        O  0.39296347  0.43274212  0.29570694    -0.46400
C140        C  0.47609178  0.38482434  0.32612320     0.75200
O141        O  0.43582042  0.47303762  0.29137675    -0.58300
O142        O  0.49410750  0.39669422  0.36371995    -0.48300
O143        O  0.49049024  0.46601070  0.34645115    -0.54700
C144        C  0.47564875  0.47658652  0.40829578     0.85400
O145        O  0.42120528  0.40848508  0.35653413    -0.56600
O146        O  0.44461318  0.39545504  0.29985995    -0.59900
N147        N  0.50206315  0.36175786  0.26192931    -0.36400
N148        N  0.52656639  0.31779972  0.22834275    -0.56900
N149        N  0.54844641  0.26627460  0.29221156    -0.36400
N150        N  0.52025494  0.30822319  0.32241977    -0.56900
C151        C  0.49147312  0.38094335  0.22806503     0.27200
C152        C  0.48685123  0.37508673  0.27643159     0.27200
C153        C  0.55321409  0.24862349  0.26832918     0.27200
C154        C  0.54998257  0.24341615  0.31795957     0.27200
C155        C  0.51797910  0.34620028  0.20453188     0.35800
C156        C  0.54185175  0.29567178  0.21973446     0.35800
C157        C  0.50902401  0.33228850  0.33454432     0.35800
C158        C  0.53484341  0.28255151  0.35153522     0.35800
C159        C  0.47002013  0.40732226  0.22154165    -0.21700
C160        C  0.46733494  0.40389408  0.25197465    -0.21700
C161        C  0.55790334  0.21422375  0.27939708    -0.21700
C162        C  0.55615569  0.21097211  0.31066265    -0.21700
C163        C  0.52765462  0.34183474  0.18047782    -0.22700
C164        C  0.54277447  0.30999459  0.19011897    -0.22700
C165        C  0.51560801  0.32137772  0.37085616    -0.22700
C166        C  0.53201554  0.29014462  0.38168094    -0.22700
C167        C  0.50012770  0.37552632  0.20234330    -0.18100
C168        C  0.49120138  0.36310004  0.31210004    -0.18100
C169        C  0.54846371  0.25129384  0.34992811    -0.18100
C170        C  0.55420171  0.26241025  0.23742198    -0.18100
H171        H  0.45745534  0.42717017  0.19731403     0.14900
H172        H  0.45269351  0.42132347  0.25527165     0.14900
H173        H  0.56216170  0.19329239  0.26647211     0.14900
H174        H  0.55914735  0.18715661  0.32600365     0.14900
H175        H  0.52442404  0.35980085  0.15841930     0.13100
H176        H  0.55329929  0.29888954  0.17682076     0.13100
H177        H  0.50893296  0.33417077  0.38767353     0.13100
H178        H  0.54001951  0.27454753  0.40822554     0.13100
H179        H  0.52051640  0.34222424  0.27593901     0.26400
H180        H  0.54834549  0.29269656  0.29454193     0.26400
N181        N  0.04678179  0.35802616  0.29643544    -0.36400
N182        N  0.02077340  0.31506345  0.32869375    -0.56900
N183        N  0.99985004  0.26295280  0.26586185    -0.36400
N184        N  0.02930849  0.30388693  0.23701395    -0.56900
C185        C  0.05890128  0.37618153  0.33169331     0.27200
C186        C  0.06375933  0.36984053  0.28356907     0.27200
C187        C  0.99489007  0.24567968  0.28970581     0.27200
C188        C  0.99954457  0.23958421  0.24151799     0.27200
C189        C  0.02818310  0.34412116  0.35110159     0.35800
C190        C  0.00308360  0.29403762  0.33485499     0.35800
C191        C  0.03994453  0.32804027  0.22427552     0.35800
C192        C  0.01460238  0.27821822  0.20787441     0.35800
C193        C  0.08333834  0.40018604  0.34093375    -0.21700
C194        C  0.08620649  0.39647030  0.31066161    -0.21700
C195        C  0.99162021  0.21098413  0.28025875    -0.21700
C196        C  0.99416406  0.20717666  0.24972536    -0.21700
C197        C  0.01516318  0.34142070  0.37162035    -0.22700
C198        C  0.99918965  0.30984078  0.36123382    -0.22700
C199        C  0.03300921  0.31714191  0.18773336    -0.22700
C200        C  0.01697765  0.28578854  0.17737516    -0.22700
C201        C  0.04851471  0.37217973  0.35581102    -0.18100
C202        C  0.05808880  0.35865902  0.24678319    -0.18100
C203        C  0.00114485  0.24703327  0.20968467    -0.18100
C204        C  0.99181286  0.26024422  0.31847084    -0.18100
H205        H  0.09772262  0.41868393  0.36682495     0.14900
H206        H  0.10307394  0.41219172  0.30941001     0.14900
H207        H  0.98769949  0.19028174  0.29371380     0.14900
H208        H  0.99222007  0.18313992  0.23536821     0.14900
H209        H  0.01702750  0.36027817  0.39203331     0.13100
H210        H  0.98637424  0.29971761  0.37210553     0.13100
H211        H  0.03946345  0.32989190  0.17066009     0.13100
H212        H  0.00900108  0.27006241  0.15100051     0.13100
H213        H  0.02582874  0.34082744  0.27997087     0.26400
H214        H  0.99905663  0.28936184  0.26240197     0.26400
In215      In  0.58492563  0.18741799  0.19771043     1.36900
C216        C  0.56014277  0.14417621  0.22024371     0.77800
O217        O  0.59496638  0.22150042  0.24774038    -0.60600
O218        O  0.55074148  0.23355066  0.18262287    -0.51500
C219        C  0.64899460  0.20102055  0.22589477     0.70500
O220        O  0.64388975  0.18194571  0.24584906    -0.46400
C221        C  0.55777829  0.14988034  0.12889820     0.75200
O222        O  0.59281021  0.14509955  0.23939258    -0.58300
O223        O  0.55048180  0.18157539  0.12557370    -0.48300
O224        O  0.54084968  0.16534616  0.18998225    -0.54700
C225        C  0.56736769  0.23932714  0.22191836     0.85400
O226        O  0.62109025  0.21423942  0.19199846    -0.56600
O227        O  0.57980732  0.13873363  0.16674928    -0.59900
In228      In  0.95839000  0.18566525  0.35541456     1.36900
C229        C  0.98364659  0.14190970  0.33376569     0.77800
O230        O  0.95068584  0.21875151  0.30627582    -0.60600
O231        O  0.99229204  0.23264763  0.37164273    -0.51500
C232        C  0.89429116  0.20066523  0.32634395     0.70500
O233        O  0.89957904  0.18015262  0.30763520    -0.46400
C234        C  0.98288920  0.14620091  0.42207796     0.75200
O235        O  0.95060747  0.14553392  0.31163661    -0.58300
O236        O  0.99398094  0.17673371  0.42722777    -0.48300
O237        O  0.00315098  0.16090557  0.36643844    -0.54700
C238        C  0.97740842  0.23748636  0.33272236     0.85400
O239        O  0.92212561  0.21466938  0.35961030    -0.56600
O240        O  0.95815212  0.13752870  0.38355501    -0.59900
C241        C  0.72373357  0.22323780  0.22807345    -0.27400
C242        C  0.75355490  0.21094957  0.26868056     0.02200
C243        C  0.74881187  0.19710407  0.29580257     0.30300
C244        C  0.71482168  0.19491282  0.28183489    -0.19200
C245        C  0.68485015  0.20634974  0.24079451    -0.28600
C246        C  0.68965936  0.22095333  0.21400776     0.44400
C247        C  0.78919647  0.21116401  0.28183882     0.05500
O248        O  0.77712315  0.18481055  0.33570707    -0.57100
H249        H  0.71189572  0.18364637  0.30307080     0.18500
O250        O  0.66128409  0.23267448  0.17379878    -0.63800
H251        H  0.72681594  0.23439932  0.20694628     0.16900
C252        C  0.79447003  0.19586859  0.25584592     0.29200
C253        C  0.82865044  0.19357622  0.27037076    -0.24700
C254        C  0.85824271  0.20656306  0.31069584    -0.24000
C255        C  0.85284601  0.22284624  0.33617228     0.40600
C256        C  0.81858007  0.22515932  0.32159310    -0.26400
O257        O  0.76670094  0.18110593  0.21734312    -0.58300
H258        H  0.83202954  0.18084985  0.25020960     0.16300
O259        O  0.88086530  0.23586740  0.37577685    -0.59800
H260        H  0.81503623  0.23740542  0.34182783     0.14700
H261        H  0.65368810  0.21296501  0.15432104     0.46600
H262        H  0.76108805  0.19715233  0.19510999     0.42000
H263        H  0.88754539  0.21751947  0.39645932     0.45400
H264        H  0.78071778  0.16105189  0.33081133     0.36900
C265        C  0.47028390  0.03740401  0.23943487    -0.27400
C266        C  0.50415185  0.05196982  0.26983436     0.02200
C267        C  0.52470451  0.04476342  0.31360540     0.30300
C268        C  0.51197085  0.02202762  0.32634489    -0.19200
C269        C  0.47854576  0.00662514  0.29602697    -0.28600
C270        C  0.45727852  0.01493021  0.25232654     0.44400
C271        C  0.51796678  0.07474263  0.25578816     0.05500
O272        O  0.55670676  0.06076765  0.34414242    -0.57100
H273        H  0.52846511  0.01642688  0.36022568     0.18500
O274        O  0.42469510  0.49999215  0.22190103    -0.63800
H275        H  0.45422124  0.04300566  0.20562341     0.16900
C276        C  0.55031461  0.06753560  0.26638961     0.29200
C277        C  0.56405962  0.09058972  0.25511651    -0.24700
C278        C  0.54534625  0.12040482  0.23211655    -0.24000
C279        C  0.51233417  0.12697814  0.22022167     0.40600
C280        C  0.49902297  0.10428054  0.23236687    -0.26400
O281        O  0.56859719  0.03796557  0.28760119    -0.58300
H282        H  0.58913179  0.08487937  0.26381776     0.16300
O283        O  0.49353478  0.15616604  0.19827457    -0.59800
H284        H  0.47411543  0.11002269  0.22408882     0.14700
H285        H  0.40741401  0.51690609  0.21635498     0.46600
H286        H  0.55665622  0.01990728  0.26520395     0.42000
H287        H  0.47585622  0.14917364  0.16772219     0.45400
H288        H  0.57488277  0.04252224  0.35687680     0.36900
C289        C  0.02371982  0.01634099  0.26917773    -0.27400
C290        C  0.04056677  0.04811287  0.28612380     0.02200
C291        C  0.07096310  0.05537601  0.29206673     0.30300
C292        C  0.08352221  0.03113023  0.28018197    -0.19200
C293        C  0.06554704  0.99998938  0.26144827    -0.28600
C294        C  0.03569962  0.49254013  0.25648829     0.44400
C295        C  0.02609058  0.07303730  0.29768947     0.05500
O296        O  0.08799697  0.08632443  0.30838784    -0.57100
H297        H  0.10641494  0.03723700  0.28399386     0.18500
O298        O  0.01769878  0.46217045  0.23873917    -0.63800
H299        H  0.00101518  0.00991591  0.26562238     0.16900
C300        C  0.98974356  0.08141908  0.26846793     0.29200
C301        C  0.97626287  0.10369347  0.28081172    -0.24700
C302        C  0.99852628  0.11788029  0.32210403    -0.24000
C303        C  0.03492424  0.10950961  0.35135123     0.40600
C304        C  0.04838177  0.08724294  0.33896709    -0.26400
O305        O  0.96748728  0.06890046  0.22729705    -0.58300
H306        H  0.94835161  0.11017795  0.25775440     0.16300
O307        O  0.05762588  0.12302352  0.39201624    -0.59800
H308        H  0.07624161  0.08055550  0.36201356     0.14700
H309        H  0.02747396  0.44694891  0.26344229     0.46600
H310        H  0.95171966  0.05236768  0.22571902     0.42000
H311        H  0.06300827  0.10394326  0.41127546     0.45400
H312        H  0.07487082  0.10204928  0.28342095     0.36900
C313        C  0.31905052  0.41008520  0.32474384    -0.27400
C314        C  0.28951813  0.40075994  0.28227422     0.02200
C315        C  0.29467876  0.39399498  0.25347821     0.30300
C316        C  0.32820281  0.39839135  0.26657521    -0.19200
C317        C  0.35737384  0.40824386  0.30873621    -0.28600
C318        C  0.35276023  0.41347331  0.33813414     0.44400
C319        C  0.25329684  0.40109915  0.26761509     0.05500
O320        O  0.26701330  0.38364839  0.21220050    -0.57100
H321        H  0.33139583  0.39425186  0.24361929     0.18500
O322        O  0.38060716  0.42377244  0.37939602    -0.63800
H323        H  0.31580962  0.41628994  0.34725613     0.16900
C324        C  0.24646352  0.38647634  0.29249048     0.29200
C325        C  0.21312179  0.39066265  0.28015621    -0.24700
C326        C  0.18596924  0.40844354  0.24253816    -0.24000
C327        C  0.19218857  0.42178918  0.21677374     0.40600
C328        C  0.22565327  0.41842907  0.22955804    -0.26400
O329        O  0.27188162  0.36730663  0.32818588    -0.58300
H330        H  0.20845992  0.37999230  0.30001442     0.16300
O331        O  0.16613206  0.43945949  0.17991581    -0.59800
H332        H  0.23028761  0.43053970  0.21030855     0.14700
H333        H  0.38163378  0.44905351  0.37787779     0.46600
H334        H  0.27881296  0.38074499  0.35295574     0.42000
H335        H  0.16961829  0.46381076  0.18878005     0.45400
H336        H  0.26688919  0.35828823  0.21355271     0.36900
C337        C  0.25504781  0.44443640  0.05117875    -0.27400
C338        C  0.25808375  0.46266802  0.02476672     0.02200
C339        C  0.22750593  0.47810914  0.48699444     0.30300
C340        C  0.19449618  0.47414494  0.47555704    -0.19200
C341        C  0.19123658  0.45506449  0.50139598    -0.28600
C342        C  0.22218988  0.44065551  0.04002469     0.44400
C343        C  0.29272724  0.46333889  0.03550245     0.05500
O344        O  0.22952363  0.49660996  0.46072888    -0.57100
H345        H  0.17127669  0.48552867  0.44593174     0.20100
O346        O  0.22057769  0.42198784  0.06654571    -0.63800
H347        H  0.27814655  0.43217862  0.08007676     0.16900
C348        C  0.32385727  0.47517739  0.07561834     0.29200
C349        C  0.35670106  0.47257033  0.08634802    -0.24700
C350        C  0.35928387  0.45767256  0.05780681    -0.24000
C351        C  0.32788543  0.44671942  0.01717133     0.40600
C352        C  0.29509833  0.44965086  0.00637098    -0.26400
O353        O  0.32230587  0.48979235  0.10425525    -0.58300
H354        H  0.38032895  0.48139512  0.11761826     0.16300
O355        O  0.32892118  0.43221487  0.98807377    -0.59800
H356        H  0.27148329  0.44016265  0.47556479     0.14700
H357        H  0.22634662  0.43849088  0.08850689     0.46600
H358        H  0.33235447  0.47245444  0.12715570     0.42000
H359        H  0.32551418  0.45154409  0.97021156     0.45400
H360        H  0.23712538  0.51988764  0.47348000     0.36900
C361        C  0.07256290  0.33890047  0.06621078    -0.27400
C362        C  0.03809550  0.32538025  0.03685078     0.02200
C363        C  0.01598184  0.33436823  0.49325238     0.30300
C364        C  0.02815090  0.35682814  0.47962662    -0.19200
C365        C  0.06266840  0.37009509  0.50875297    -0.28600
C366        C  0.08499838  0.36107297  0.05240773     0.44400
C367        C  0.02520879  0.30180681  0.05154800     0.05500
O368        O  0.98238785  0.32116368  0.46353522    -0.57100
H369        H  0.01055335  0.36351303  0.44592556     0.18500
O370        O  0.11871609  0.37403817  0.08175081    -0.63800
H371        H  0.08971301  0.33265326  0.09998945     0.16900
C372        C  0.04466965  0.27246396  0.07579079     0.29200
C373        C  0.03027206  0.24903550  0.08586708    -0.24700
C374        C  0.99661121  0.25447080  0.07220446    -0.24000
C375        C  0.97773947  0.28440711  0.04930570     0.40600
C376        C  0.99217940  0.30789705  0.03937535    -0.26400
O377        O  0.07685405  0.26555629  0.08778692    -0.58300
H378        H  0.04527007  0.22619293  0.10376216     0.16300
O379        O  0.94522081  0.29100287  0.03643344    -0.59800
H380        H  0.97734068  0.33085252  0.02168226     0.14700
H381        H  0.11715889  0.39299319  0.09627348     0.46600
H382        H  0.09470827  0.27014939  0.11906429     0.42000
H383        H  0.95037503  0.30305752  0.06099623     0.45400
H384        H  0.98524875  0.29919867  0.45416282     0.36900
C385        C  0.49840447  0.31285527  0.04178590    -0.27400
C386        C  0.52915886  0.32147736  0.04935622     0.02200
C387        C  0.54527173  0.35353063  0.06728477     0.30300
C388        C  0.53032982  0.37660067  0.07697950    -0.19200
C389        C  0.49897199  0.36838846  0.06812063    -0.28600
C390        C  0.48320314  0.33610823  0.05089504     0.44400
C391        C  0.54160906  0.29827301  0.03391560     0.05500
O392        O  0.57388475  0.36349026  0.07225821    -0.57100
H393        H  0.54265541  0.40146187  0.09010974     0.18500
O394        O  0.45294565  0.32706712  0.04269985    -0.63800
H395        H  0.48575635  0.28821854  0.02791645     0.16900
C396        C  0.57671982  0.28607032  0.06096572     0.29200
C397        C  0.58714078  0.26423972  0.04444549    -0.24700
C398        C  0.56265747  0.25370465  0.50143003    -0.24000
C399        C  0.52746736  0.26583313  0.47462454     0.40600
C400        C  0.51740421  0.28808578  0.49088713    -0.26400
O401        O  0.60076378  0.29480199  0.10357696    -0.58300
H402        H  0.61414518  0.25483341  0.06556775     0.16300
O403        O  0.50274722  0.25673497  0.43214825    -0.59800
H404        H  0.49040914  0.29756914  0.46964201     0.14700
H405        H  0.46121869  0.31797807  0.07026176     0.46600
H406        H  0.59807862  0.27707909  0.11829316     0.42000
H407        H  0.48898086  0.23780996  0.43093924     0.45400
H408        H  0.59415943  0.36435208  0.10369626     0.36900
C409        C  0.74670149  0.14379713  0.04116324    -0.27400
C410        C  0.75422407  0.15843966  0.01711190     0.02200
C411        C  0.72634612  0.17432936  0.47762733     0.30300
C412        C  0.69218471  0.17567626  0.46329075    -0.19200
C413        C  0.68538609  0.16248597  0.48843627    -0.28600
C414        C  0.71280101  0.14630649  0.02745794     0.44400
C415        C  0.79131165  0.15822120  0.03414896     0.05500
O416        O  0.73232931  0.18999932  0.45351163    -0.57100
H417        H  0.67134276  0.18871697  0.43345305     0.18500
O418        O  0.70684069  0.13301069  0.05261575    -0.63800
H419        H  0.76729350  0.13070753  0.07102917     0.16900
C420        C  0.82052736  0.16697982  0.07730620     0.29200
C421        C  0.85488121  0.16791729  0.09214068    -0.24700
C422        C  0.86071388  0.16188231  0.06412818    -0.24000
C423        C  0.83181182  0.15297068  0.02122656     0.40600
C424        C  0.79767049  0.15052149  0.00680226    -0.26400
O425        O  0.81572939  0.17625594  0.10486106    -0.58300
H426        H  0.87678365  0.17531770  0.12509526     0.16300
O427        O  0.83664019  0.14687382  0.49300720    -0.59800
H428        H  0.77606812  0.14295839  0.47390170     0.14700
H429        H  0.69706058  0.10976228  0.04095909     0.46600
H430        H  0.80919103  0.20086368  0.09895520     0.42000
H431        H  0.84386363  0.12262233  0.99728933     0.45400
H432        H  0.74188458  0.21297305  0.46659012     0.36900
In433      In  0.58867315  0.18580834  0.95122522     1.36900
C434        C  0.57311111  0.22952931  0.98460143     0.77800
O435        O  0.58709169  0.23529358  0.92383501    -0.60600
O436        O  0.55341981  0.19529622  0.87979708    -0.51500
C437        C  0.65059896  0.16892693  0.97555818     0.70500
O438        O  0.64792875  0.18356895  0.50022358    -0.46400
C439        C  0.56377704  0.13420013  0.96622741     0.75200
O440        O  0.60507362  0.22284455  0.50315942    -0.58300
O441        O  0.54580279  0.14708694  0.92917726    -0.48300
O442        O  0.55031389  0.21365938  0.95002174    -0.54700
C443        C  0.56338021  0.22627584  0.88517712     0.85400
O444        O  0.62148839  0.16149653  0.93874332    -0.56600
O445        O  0.59579362  0.14346190  0.49242244    -0.59900
In446      In  0.95970372  0.18368136  0.60672080     1.36900
C447        C  0.98256157  0.22910304  0.58353173     0.77800
O448        O  0.96031142  0.23132396  0.63577246    -0.60600
O449        O  0.99645469  0.19179844  0.67859197    -0.51500
C450        C  0.89634435  0.16786911  0.57902565     0.70500
O451        O  0.90061603  0.18305711  0.55600145    -0.46400
C452        C  0.97910518  0.13176459  0.58498386     0.75200
O453        O  0.95003442  0.22672973  0.56458499    -0.58300
O454        O  0.99487282  0.13773230  0.62398768    -0.48300
O455        O  0.00265592  0.20795363  0.61352190    -0.54700
C456        C  0.98544878  0.22226056  0.67402277     0.85400
O457        O  0.92473051  0.15953289  0.61602742    -0.56600
O458        O  0.95148802  0.14931316  0.55837200    -0.59900
N459        N  0.53802722  0.11272283  0.53103446    -0.36400
N460        N  0.51838309  0.05912309  0.96984654    -0.56900
N461        N  0.49266932  0.01708105  0.50234022    -0.36400
N462        N  0.51573485  0.06854821  0.56674088    -0.56900
C463        C  0.55398977  0.12486584  0.51697047     0.27200
C464        C  0.55050520  0.13111153  0.56629882     0.27200
C465        C  0.49165885  0.99414539  0.97708027     0.27200
C466        C  0.49087150  0.49911615  0.52867107     0.27200
C467        C  0.52829288  0.08355021  0.95651982     0.35800
C468        C  0.50196884  0.03415411  0.93968324     0.35800
C469        C  0.52289869  0.09763683  0.58893941     0.35800
C470        C  0.49948507  0.04693153  0.57446670     0.35800
C471        C  0.57579641  0.15221579  0.54306057    -0.21700
C472        C  0.57377667  0.15588248  0.57405993    -0.21700
C473        C  0.48914662  0.46130186  0.98739708    -0.21700
C474        C  0.48923388  0.46439461  0.52024123    -0.21700
C475        C  0.51875660  0.07371607  0.91813184    -0.22700
C476        C  0.50190688  0.04272157  0.90735668    -0.22700
C477        C  0.51130962  0.09430483  0.61104201    -0.22700
C478        C  0.49637834  0.06232032  0.60174535    -0.22700
C479        C  0.54816092  0.11326643  0.98014687    -0.18100
C480        C  0.54175765  0.12636395  0.59200863    -0.18100
C481        C  0.48874008  0.01304330  0.55847591    -0.18100
C482        C  0.49034762  0.00226237  0.94297884    -0.18100
H483        H  0.59165100  0.16849689  0.54061622     0.14900
H484        H  0.58805675  0.17473367  0.59955561     0.14900
H485        H  0.48755289  0.43737449  0.97313414     0.14900
H486        H  0.48790784  0.44325982  0.53574162     0.14900
H487        H  0.52381533  0.08698550  0.89991257     0.13100
H488        H  0.49183656  0.02785275  0.87945672     0.13100
H489        H  0.51328719  0.11302097  0.63166791     0.13100
H490        H  0.48464333  0.05175053  0.61379798     0.13100
H491        H  0.51784349  0.09473286  0.51579432     0.26400
H492        H  0.49007072  0.04346821  0.49795515     0.26400
N493        N  0.99859297  0.10559529  0.51538084    -0.36400
N494        N  0.02767589  0.06462407  0.98589056    -0.56900
N495        N  0.04709680  0.01104295  0.54708039    -0.36400
N496        N  0.02174289  0.05408261  0.58020419    -0.56900
C497        C  0.99666600  0.12862716  0.98960123     0.27200
C498        C  0.99420369  0.12307819  0.53967246     0.27200
C499        C  0.06184162  0.49770680  0.53195686     0.27200
C500        C  0.05732041  0.99137451  0.58050929     0.27200
C501        C  0.01225821  0.09003795  0.95629932     0.35800
C502        C  0.03924819  0.04083481  0.97387928     0.35800
C503        C  0.00571062  0.07576131  0.58815306     0.35800
C504        C  0.03047881  0.02561777  0.60400060     0.35800
C505        C  0.99042250  0.16095254  0.99698734    -0.21700
C506        C  0.98936226  0.15755568  0.52869862    -0.21700
C507        C  0.08081154  0.46846294  0.55571777    -0.21700
C508        C  0.07814904  0.46471240  0.58618470    -0.21700
C509        C  0.01484450  0.08256613  0.92597946    -0.22700
C510        C  0.03210650  0.05179886  0.93722496    -0.22700
C511        C  0.00434694  0.06104402  0.61724202    -0.22700
C512        C  0.02011757  0.02945113  0.62740228    -0.22700
C513        C  0.99817328  0.12106248  0.95764393    -0.18100
C514        C  0.99319705  0.10901342  0.57044333    -0.18100
C515        C  0.04882398  0.99661082  0.60651354    -0.18100
C516        C  0.05727295  0.00994391  0.99619393    -0.18100
H517        H  0.98709693  0.18476026  0.98140144     0.14900
H518        H  0.98551006  0.17844028  0.54210230     0.14900
H519        H  0.09506696  0.45092396  0.55195115     0.14900
H520        H  0.09023128  0.44441842  0.60979510     0.14900
H521        H  0.00599487  0.09792748  0.89895260     0.13100
H522        H  0.03878529  0.03930942  0.92026932     0.13100
H523        H  0.99318284  0.07179456  0.62991880     0.13100
H524        H  0.02339952  0.01129719  0.64942876     0.13100
H525        H  0.99872481  0.07916727  0.51297327     0.26400
H526        H  0.02934440  0.03111465  0.53388209     0.26400
In527      In  0.45835275  0.43793622  0.59850259     1.36900
C528        C  0.48366977  0.39353974  0.57785570     0.77800
O529        O  0.44979159  0.46974869  0.54813441    -0.60600
O530        O  0.49049582  0.48586585  0.61285812    -0.51500
C531        C  0.39472152  0.45208176  0.57155423     0.70500
O532        O  0.39927806  0.43315351  0.55097282    -0.46400
C533        C  0.48492340  0.39952766  0.66618701     0.75200
O534        O  0.45081239  0.39515435  0.55767356    -0.58300
O535        O  0.49436137  0.43063296  0.67048024    -0.48300
O536        O  0.50292206  0.41523541  0.60755737    -0.54700
C537        C  0.47558003  0.48969987  0.57378211     0.85400
O538        O  0.42296833  0.46491560  0.60547439    -0.56600
O539        O  0.46118884  0.38947621  0.62806185    -0.59900
In540      In  0.09197401  0.43548199  0.96070849     1.36900
C541        C  0.07413592  0.39364403  0.99270224     0.77800
O542        O  0.10209335  0.47553685  0.50618177    -0.60600
O543        O  0.05254861  0.47721121  0.94258106    -0.51500
C544        C  0.15563369  0.44898009  0.98714600     0.70500
O545        O  0.15077555  0.42890637  0.00657874    -0.46400
C546        C  0.06395706  0.39605777  0.89240305     0.75200
O547        O  0.10631288  0.39916922  0.01164576    -0.58300
O548        O  0.05808977  0.42810876  0.88868481    -0.48300
O549        O  0.05183435  0.40955328  0.95789898    -0.54700
C550        C  0.07124467  0.48786400  0.98081879     0.85400
O551        O  0.12756730  0.46286884  0.95411416    -0.56600
O552        O  0.08469424  0.38517918  0.93041420    -0.59900
In553      In  0.09162121  0.43323143  0.71046380     1.36900
C554        C  0.07611253  0.47640850  0.74424004     0.77800
O555        O  0.08718746  0.48267279  0.68098915    -0.60600
O556        O  0.05527348  0.44125904  0.63840921    -0.51500
C557        C  0.15219794  0.41551909  0.73179300     0.70500
O558        O  0.15087635  0.43161713  0.75699459    -0.46400
C559        C  0.07126367  0.38112000  0.73088705     0.75200
O560        O  0.10736887  0.47416254  0.75846006    -0.58300
O561        O  0.05157323  0.39282119  0.69299204    -0.48300
O562        O  0.05373059  0.45696181  0.71315566    -0.54700
C563        C  0.06408083  0.47255942  0.64274527     0.85400
O564        O  0.12245390  0.40726412  0.69616241    -0.56600
O565        O  0.10252124  0.39248019  0.75552575    -0.59900
In566      In  0.45199596  0.43593999  0.84297670     1.36900
C567        C  0.46761976  0.48126256  0.81115566     0.77800
O568        O  0.45007721  0.48426752  0.86948969    -0.60600
O569        O  0.48803763  0.44668900  0.91421255    -0.51500
C570        C  0.39153133  0.41632754  0.82059550     0.70500
O571        O  0.39299646  0.43288691  0.79577133    -0.46400
C572        C  0.47615473  0.38489001  0.82613567     0.75200
O573        O  0.43577417  0.47297444  0.79120495    -0.58300
O574        O  0.49422019  0.39687088  0.86368840    -0.48300
O575        O  0.49044217  0.46621906  0.84642554    -0.54700
C576        C  0.47560721  0.47664769  0.90822645     0.85400
O577        O  0.42127109  0.40847497  0.85652247    -0.56600
O578        O  0.44463599  0.39541578  0.79991778    -0.59900
N579        N  0.50212470  0.36182377  0.76195433    -0.36400
N580        N  0.52665303  0.31787316  0.72839537    -0.56900
N581        N  0.54838299  0.26628926  0.79212380    -0.36400
N582        N  0.52017169  0.30823022  0.82230347    -0.56900
C583        C  0.49146473  0.38096320  0.72802796     0.27200
C584        C  0.48686546  0.37512186  0.77640926     0.27200
C585        C  0.55314440  0.24864774  0.76823141     0.27200
C586        C  0.54981891  0.24340683  0.81777591     0.27200
C587        C  0.51803590  0.34626135  0.70455619     0.35800
C588        C  0.54193622  0.29574525  0.71978398     0.35800
C589        C  0.50902246  0.33232677  0.83449784     0.35800
C590        C  0.53474416  0.28254913  0.85140433     0.35800
C591        C  0.46992631  0.40728335  0.72142582    -0.21700
C592        C  0.46725891  0.40386681  0.75187461    -0.21700
C593        C  0.55771211  0.21422747  0.77918138    -0.21700
C594        C  0.55590156  0.21095332  0.81039276    -0.21700
C595        C  0.52770037  0.34189339  0.68049120    -0.22700
C596        C  0.54284593  0.31006401  0.69015576    -0.22700
C597        C  0.51562701  0.32142629  0.87082350    -0.22700
C598        C  0.53196916  0.29016298  0.88159264    -0.22700
C599        C  0.50013386  0.37555912  0.70232166    -0.18100
C600        C  0.49123862  0.36315489  0.81209287    -0.18100
C601        C  0.54832608  0.25127841  0.84976492    -0.18100
C602        C  0.55422647  0.26246108  0.73741473    -0.18100
H603        H  0.45728759  0.42707971  0.69712918     0.14900
H604        H  0.45255149  0.42124585  0.75511795     0.14900
H605        H  0.56193178  0.19329962  0.76621337     0.14900
H606        H  0.55879555  0.18712034  0.82564569     0.14900
H607        H  0.52442651  0.35984237  0.65839132     0.13100
H608        H  0.55334567  0.29895055  0.67683124     0.13100
H609        H  0.50901250  0.33425394  0.88768756     0.13100
H610        H  0.53997678  0.27456763  0.90813946     0.13100
H611        H  0.52066531  0.34236132  0.77605035     0.26400
H612        H  0.54836435  0.29271099  0.79454019     0.26400
N613        N  0.04669880  0.35808399  0.79637049    -0.36400
N614        N  0.02074617  0.31507579  0.82868881    -0.56900
N615        N  0.99983572  0.26294071  0.76588415    -0.36400
N616        N  0.02923525  0.30392368  0.73697601    -0.56900
C617        C  0.05886006  0.37620807  0.83166738     0.27200
C618        C  0.06368839  0.36988129  0.78351062     0.27200
C619        C  0.99487567  0.24566756  0.78972881     0.27200
C620        C  0.99951534  0.23957694  0.74152450     0.27200
C621        C  0.02812111  0.34415543  0.85105382     0.35800
C622        C  0.00304550  0.29405150  0.83484150     0.35800
C623        C  0.03984108  0.32808619  0.72420403     0.35800
C624        C  0.01454536  0.27823560  0.70785853     0.35800
C625        C  0.08333566  0.40017629  0.84094017    -0.21700
C626        C  0.08618698  0.39646927  0.81065061    -0.21700
C627        C  0.99159541  0.21097160  0.78026959    -0.21700
C628        C  0.99412435  0.20716891  0.74972115    -0.21700
C629        C  0.01506117  0.34147390  0.87152746    -0.22700
C630        C  0.99910552  0.30988343  0.86116455    -0.22700
C631        C  0.03289669  0.31717600  0.68766102    -0.22700
C632        C  0.01689975  0.28580793  0.67734250    -0.22700
C633        C  0.04847449  0.37220896  0.85578930    -0.18100
C634        C  0.05799200  0.35871216  0.74670003    -0.18100
C635        C  0.00111569  0.24703343  0.70969079    -0.18100
C636        C  0.99179875  0.26023780  0.81849461    -0.18100
H637        H  0.09775943  0.41864189  0.86686743     0.14900
H638        H  0.10308396  0.41216663  0.80942867     0.14900
H639        H  0.98767887  0.19026410  0.79372548     0.14900
H640        H  0.99216471  0.18313517  0.73534770     0.14900
H641        H  0.01689053  0.36035020  0.89189939     0.13100
H642        H  0.98626888  0.29977241  0.87201344     0.13100
H643        H  0.03933020  0.32992261  0.67056510     0.13100
H644        H  0.00893335  0.27007354  0.65098104     0.13100
H645        H  0.02571522  0.34091735  0.77988329     0.26400
H646        H  0.99906136  0.28934992  0.76244157     0.26400
In647      In  0.58488770  0.18746127  0.69764571     1.36900
C648        C  0.56004022  0.14420030  0.72007572     0.77800
O649        O  0.59493675  0.22148781  0.74771605    -0.60600
O650        O  0.55076838  0.23363397  0.68260368    -0.51500
C651        C  0.64896562  0.20109610  0.72587421     0.70500
O652        O  0.64384268  0.18201140  0.74580372    -0.46400
C653        C  0.55774959  0.14989244  0.62887102     0.75200
O654        O  0.59270972  0.14509602  0.73923114    -0.58300
O655        O  0.55040635  0.18157714  0.62551747    -0.48300
O656        O  0.54077776  0.16542770  0.68987722    -0.54700
C657        C  0.56737851  0.23936889  0.72190353     0.85400
O658        O  0.62106577  0.21429719  0.69195137    -0.56600
O659        O  0.57983081  0.13877499  0.66673165    -0.59900
In660      In  0.95843077  0.18562650  0.85552079     1.36900
C661        C  0.98368609  0.14187306  0.83385756     0.77800
O662        O  0.95073162  0.21867210  0.80634695    -0.60600
O663        O  0.99225632  0.23268083  0.87168265    -0.51500
C664        C  0.89431162  0.20054639  0.82644825     0.70500
O665        O  0.89962855  0.17993717  0.80784427    -0.46400
C666        C  0.98295203  0.14620198  0.92223720     0.75200
O667        O  0.95064668  0.14557473  0.81166354    -0.58300
O668        O  0.99410696  0.17670289  0.92736473    -0.48300
O669        O  0.00319390  0.16077767  0.86661794    -0.54700
C670        C  0.97740542  0.23746937  0.83276541     0.85400
O671        O  0.92212101  0.21468206  0.85959857    -0.56600
O672        O  0.95815169  0.13755154  0.88372458    -0.59900
C673        C  0.72379332  0.22323653  0.72819117    -0.27400
C674        C  0.75358508  0.21096056  0.76882582     0.02200
C675        C  0.74880177  0.19721655  0.79594809     0.30300
C676        C  0.71478960  0.19505138  0.78192249    -0.19200
C677        C  0.68484203  0.20644719  0.74084055    -0.28600
C678        C  0.68970172  0.22101758  0.71408730     0.44400
C679        C  0.78923172  0.21107755  0.78199928     0.05500
O680        O  0.77709415  0.18499569  0.83590785    -0.57100
H681        H  0.71182768  0.18383688  0.80314753     0.18500
O682        O  0.66136186  0.23277425  0.67388029    -0.63800
H683        H  0.72691536  0.23433573  0.70707417     0.16900
C684        C  0.79450542  0.19559547  0.75609065     0.29200
C685        C  0.82867883  0.19327217  0.77059657    -0.24700
C686        C  0.85826332  0.20641976  0.81081657    -0.24000
C687        C  0.85286565  0.22286670  0.83621435     0.40600
C688        C  0.81860783  0.22519813  0.82166057    -0.26400
O689        O  0.76674013  0.18070238  0.71769026    -0.58300
H690        H  0.83205779  0.18041297  0.75050035     0.16300
O691        O  0.88087779  0.23604558  0.87571624    -0.59800
H692        H  0.81506208  0.23757534  0.84183223     0.14700
H693        H  0.65374584  0.21307214  0.65438711     0.46600
H694        H  0.76108651  0.19663729  0.69534724     0.42000
H695        H  0.88762701  0.21779611  0.89653204     0.45400
H696        H  0.78061863  0.16116415  0.83112660     0.36900
C697        C  0.47020213  0.03727408  0.73917215    -0.27400
C698        C  0.50401498  0.05194614  0.76955864     0.02200
C699        C  0.52451833  0.04490017  0.81335447     0.30300
C700        C  0.51179162  0.02221738  0.82614646    -0.19200
C701        C  0.47842897  0.00669443  0.79584675    -0.28600
C702        C  0.45720537  0.01484245  0.75210993     0.44400
C703        C  0.51781172  0.07469638  0.75548119     0.05500
O704        O  0.55646823  0.06099898  0.84385551    -0.57100
H705        H  0.52825185  0.01673559  0.86004990     0.18500
O706        O  0.42468549  0.49978314  0.72170627    -0.63800
H707        H  0.45417889  0.04276103  0.70534093     0.16900
C708        C  0.55015982  0.06749299  0.76608862     0.29200
C709        C  0.56391427  0.09056160  0.75484049    -0.24700
C710        C  0.54521215  0.12039263  0.73187453    -0.24000
C711        C  0.51218967  0.12695124  0.71995817     0.40600
C712        C  0.49886934  0.10423657  0.73207470    -0.26400
O713        O  0.56843783  0.03792174  0.78730056    -0.58300
H714        H  0.58899134  0.08485862  0.76355125     0.16300
O715        O  0.49338999  0.15614169  0.69802306    -0.59800
H716        H  0.47396088  0.10997132  0.72379771     0.14700
H717        H  0.40730338  0.51676430  0.71578310     0.46600
H718        H  0.55668806  0.01992536  0.76483819     0.42000
H719        H  0.47572339  0.14915970  0.66746573     0.45400
H720        H  0.57469897  0.04280360  0.85664480     0.36900
C721        C  0.02382126  0.01634714  0.76928082    -0.27400
C722        C  0.04059067  0.04816216  0.78611295     0.02200
C723        C  0.07091581  0.05549484  0.79192629     0.30300
C724        C  0.08347907  0.03127101  0.78002243    -0.19200
C725        C  0.06556800  0.00008710  0.76138799    -0.28600
C726        C  0.03579518  0.49257345  0.75655990     0.44400
C727        C  0.02611093  0.07306064  0.79769770     0.05500
O728        O  0.08787111  0.08648853  0.80813633    -0.57100
H729        H  0.10631442  0.03742716  0.78373285     0.18500
O730        O  0.01784917  0.46216981  0.73888680    -0.63800
H731        H  0.00117562  0.00987143  0.76582773     0.16900
C732        C  0.98974908  0.08138256  0.76852276     0.29200
C733        C  0.97627864  0.10364943  0.78088678    -0.24700
C734        C  0.99856119  0.11786498  0.82216643    -0.24000
C735        C  0.03497076  0.10953852  0.85137133     0.40600
C736        C  0.04842163  0.08729933  0.83895661    -0.26400
O737        O  0.96746139  0.06880160  0.72738092    -0.58300
H738        H  0.94835590  0.11009160  0.75786058     0.16300
O739        O  0.05769351  0.12306861  0.89202597    -0.59800
H740        H  0.07629365  0.08065460  0.86196814     0.14700
H741        H  0.02769133  0.44696690  0.76362565     0.46600
H742        H  0.95179616  0.05220505  0.72592080     0.42000
H743        H  0.06302313  0.10401751  0.91129099     0.45400
H744        H  0.07463630  0.10218477  0.78313608     0.36900
C745        C  0.31914329  0.41003604  0.82485498    -0.27400
C746        C  0.28957815  0.40085397  0.78233619     0.02200
C747        C  0.29471133  0.39420501  0.75349393     0.30300
C748        C  0.32823943  0.39857009  0.76659938    -0.19200
C749        C  0.35743909  0.40830209  0.80879865    -0.28600
C750        C  0.35285462  0.41342200  0.83823929     0.44400
C751        C  0.25335217  0.40124218  0.76766963     0.05500
O752        O  0.26700802  0.38402831  0.71215117    -0.57100
H753        H  0.33140856  0.39452127  0.74360897     0.18500
O754        O  0.38072855  0.42362726  0.87953518    -0.63800
H755        H  0.31592584  0.41614765  0.84740876     0.16900
C756        C  0.24645028  0.38650439  0.79242843     0.29200
C757        C  0.21309436  0.39068867  0.78006271    -0.24700
C758        C  0.18599295  0.40858493  0.74252438    -0.24000
C759        C  0.19228684  0.42206506  0.71688359     0.40600
C760        C  0.22576627  0.41870583  0.72970464    -0.26400
O761        O  0.27180770  0.36721639  0.82802641    -0.58300
H762        H  0.20837790  0.37991780  0.79982802     0.16300
O763        O  0.16628336  0.43984692  0.68010538    -0.59800
H764        H  0.23045488  0.43090934  0.71055085     0.14700
H765        H  0.38173956  0.44892165  0.87812628     0.46600
H766        H  0.27875970  0.38056724  0.85285999     0.42000
H767        H  0.16996431  0.46419671  0.68903653     0.45400
H768        H  0.26684338  0.35865948  0.71332106     0.36900
C769        C  0.25503887  0.44464783  0.55119897    -0.27400
C770        C  0.25807078  0.46282024  0.52475181     0.02200
C771        C  0.22753767  0.47804137  0.98708074     0.30300
C772        C  0.19453570  0.47409768  0.97566532    -0.19200
C773        C  0.19126954  0.45497126  0.00147051    -0.28600
C774        C  0.22217026  0.44082799  0.54000825     0.44400
C775        C  0.29271758  0.46345932  0.53549128     0.05500
O776        O  0.22957164  0.49662948  0.96088082    -0.57100
H777        H  0.17132814  0.48554833  0.94609051     0.20100
O778        O  0.22055888  0.42217583  0.56653900    -0.63800
H779        H  0.27814666  0.43244200  0.58014099     0.16900
C780        C  0.32385445  0.47532422  0.57558636     0.29200
C781        C  0.35669474  0.47268591  0.58630790    -0.24700
C782        C  0.35927036  0.45771667  0.55778935    -0.24000
C783        C  0.32786880  0.44671250  0.51718930     0.40600
C784        C  0.29508584  0.44968650  0.50639110    -0.26400
O785        O  0.32231669  0.48998426  0.60421562    -0.58300
H786        H  0.38032595  0.48154080  0.61755675     0.16300
O787        O  0.32889872  0.43210805  0.48812960    -0.59800
H788        H  0.27149606  0.44016605  0.97551703     0.14700
H789        H  0.22634800  0.43868266  0.58850736     0.46600
H790        H  0.33234356  0.47265603  0.62712086     0.42000
H791        H  0.32530726  0.45136022  0.47006842     0.45400
H792        H  0.23706450  0.51991408  0.97362497     0.36900
C793        C  0.07261139  0.33897090  0.56623331    -0.27400
C794        C  0.03816558  0.32540083  0.53691191     0.02200
C795        C  0.01592549  0.33442581  0.99321849     0.30300
C796        C  0.02813221  0.35689809  0.97965290    -0.19200
C797        C  0.06266790  0.37011924  0.00881190    -0.28600
C798        C  0.08501379  0.36111468  0.55236912     0.44400
C799        C  0.02531639  0.30185782  0.55167972     0.05500
O800        O  0.98230573  0.32128695  0.96346579    -0.57100
H801        H  0.01054472  0.36362964  0.94596635     0.18500
O802        O  0.11871360  0.37412730  0.58167647    -0.63800
H803        H  0.08977070  0.33278692  0.60002990     0.16900
C804        C  0.04482646  0.27256432  0.57602068     0.29200
C805        C  0.03044602  0.24913791  0.58612346    -0.24700
C806        C  0.99675017  0.25452427  0.57237949    -0.24000
C807        C  0.97784332  0.28442895  0.54941413     0.40600
C808        C  0.99226871  0.30791890  0.53946633    -0.26400
O809        O  0.07703635  0.26569061  0.58807085    -0.58300
H810        H  0.04547694  0.22632674  0.60408269     0.16300
O811        O  0.94529236  0.29098402  0.53646841    -0.59800
H812        H  0.97739580  0.33084279  0.52170786     0.14700
H813        H  0.11713589  0.39309536  0.59616682     0.46600
H814        H  0.09486816  0.27036905  0.61932908     0.42000
H815        H  0.95039547  0.30300251  0.56101907     0.45400
H816        H  0.98513162  0.29929621  0.95410079     0.36900
C817        C  0.49833303  0.31281958  0.54167447    -0.27400
C818        C  0.52915326  0.32138184  0.54936633     0.02200
C819        C  0.54534040  0.35338940  0.56742626     0.30300
C820        C  0.53041215  0.37646662  0.57713702    -0.19200
C821        C  0.49898483  0.36832070  0.56814423    -0.28600
C822        C  0.48313796  0.33608724  0.55077964     0.44400
C823        C  0.54161783  0.29816427  0.53394529     0.05500
O824        O  0.57400888  0.36331086  0.57249620    -0.57100
H825        H  0.54279992  0.40129071  0.59037071     0.18500
O826        O  0.45279926  0.32710987  0.54242483    -0.63800
H827        H  0.48562562  0.28821983  0.52770830     0.16900
C828        C  0.57674172  0.28598918  0.56100511     0.29200
C829        C  0.58718839  0.26417746  0.54450094    -0.24700
C830        C  0.56259886  0.25379442  0.00136276    -0.24000
C831        C  0.52742715  0.26597304  0.97456169     0.40600
C832        C  0.51738719  0.28823116  0.99084641    -0.26400
O833        O  0.60077619  0.29472242  0.60361583    -0.58300
H834        H  0.61420448  0.25480273  0.56562945     0.16300
O835        O  0.50270737  0.25692483  0.93206832    -0.59800
H836        H  0.49040410  0.29774690  0.96961293     0.14700
H837        H  0.46096972  0.31803462  0.56994224     0.46600
H838        H  0.59791966  0.27713067  0.61829104     0.42000
H839        H  0.48887375  0.23804528  0.93080396     0.45400
H840        H  0.59423319  0.36424210  0.60394557     0.36900
C841        C  0.74674225  0.14367232  0.54114336    -0.27400
C842        C  0.75428279  0.15838643  0.51714166     0.02200
C843        C  0.72627314  0.17434032  0.97756731     0.30300
C844        C  0.69212116  0.17571327  0.96325385    -0.19200
C845        C  0.68534312  0.16259712  0.98844764    -0.28600
C846        C  0.71282899  0.14614335  0.52741069     0.44400
C847        C  0.79137198  0.15818177  0.53418805     0.05500
O848        O  0.73222531  0.18993489  0.95338527    -0.57100
H849        H  0.67126628  0.18871056  0.93338486     0.18500
O850        O  0.70684195  0.13276798  0.55251154    -0.63800
H851        H  0.76733041  0.13055861  0.57099081     0.16900
C852        C  0.82058013  0.16695420  0.57734045     0.29200
C853        C  0.85493888  0.16789640  0.59218202    -0.24700
C854        C  0.86077982  0.16184081  0.56417867    -0.24000
C855        C  0.83188128  0.15290735  0.52128315     0.40600
C856        C  0.79773636  0.15047021  0.50685057    -0.26400
O857        O  0.81576511  0.17623947  0.60487717    -0.58300
H858        H  0.87683662  0.17531315  0.62513134     0.16300
O859        O  0.83656408  0.14697335  0.99293834    -0.59800
H860        H  0.77600294  0.14301215  0.97385269     0.14700
H861        H  0.69712854  0.10950491  0.54084716     0.46600
H862        H  0.80938752  0.20088686  0.59909977     0.42000
H863        H  0.84410217  0.12256611  0.49752597     0.45400
H864        H  0.74199230  0.21284320  0.96656683     0.36900
In865      In  0.58876327  0.68574893  0.45131491     1.36900
C866        C  0.57319314  0.72945191  0.48468601     0.77800
O867        O  0.58719890  0.73527213  0.42398968    -0.60600
O868        O  0.55350842  0.69530255  0.37990649    -0.51500
C869        C  0.65065455  0.66883154  0.47557460     0.70500
O870        O  0.64784173  0.68364692  0.00018732    -0.46400
C871        C  0.56384903  0.63415038  0.46630704     0.75200
O872        O  0.60498492  0.72292706  0.00304866    -0.58300
O873        O  0.54589555  0.64701811  0.42925027    -0.48300
O874        O  0.55040470  0.71359451  0.45009289    -0.54700
C875        C  0.56348758  0.72627919  0.38532158     0.85400
O876        O  0.62152908  0.66140393  0.43877248    -0.56600
O877        O  0.59572580  0.64349629  0.99231671    -0.59900
In878      In  0.95964555  0.68367722  0.10669481     1.36900
C879        C  0.98244357  0.72907473  0.08340741     0.77800
O880        O  0.96031543  0.73134392  0.13576361    -0.60600
O881        O  0.99642987  0.69179764  0.17856393    -0.51500
C882        C  0.89627950  0.66790179  0.07898555     0.70500
O883        O  0.90056211  0.68306777  0.05596192    -0.46400
C884        C  0.97908359  0.63171447  0.08505784     0.75200
O885        O  0.94992538  0.72670612  0.06449855    -0.58300
O886        O  0.99482304  0.63770711  0.12404651    -0.48300
O887        O  0.00255307  0.70793551  0.11340421    -0.54700
C888        C  0.98545405  0.72227003  0.17400724     0.85400
O889        O  0.92465778  0.65957871  0.11599929    -0.56600
O890        O  0.95146370  0.64924943  0.05841261    -0.59900
N891        N  0.53802503  0.61274239  0.03102186    -0.36400
N892        N  0.51844526  0.55907121  0.46991177    -0.56900
N893        N  0.49258421  0.51712103  0.00225967    -0.36400
N894        N  0.51568902  0.56857114  0.06668754    -0.56900
C895        C  0.55399921  0.62487000  0.01696599     0.27200
C896        C  0.55053623  0.63110455  0.06631670     0.27200
C897        C  0.49179332  0.49409107  0.47721022     0.27200
C898        C  0.49074645  0.99914763  0.02855268     0.27200
C899        C  0.52838201  0.58348337  0.45660237     0.35800
C900        C  0.50206152  0.53408414  0.43977078     0.35800
C901        C  0.52289796  0.59764535  0.08893066     0.35800
C902        C  0.49947770  0.54693960  0.07445766     0.35800
C903        C  0.57586178  0.65217690  0.04310512    -0.21700
C904        C  0.57385334  0.65583730  0.07411676    -0.21700
C905        C  0.48937061  0.96124746  0.48761287    -0.21700
C906        C  0.48901409  0.96443297  0.02002875    -0.21700
C907        C  0.51890169  0.57361701  0.41825395    -0.22700
C908        C  0.50204971  0.54262225  0.40747851    -0.22700
C909        C  0.51136731  0.59429065  0.11109618    -0.22700
C910        C  0.49644005  0.56230627  0.10180752    -0.22700
C911        C  0.54820971  0.61322486  0.48020196    -0.18100
C912        C  0.54177480  0.62636567  0.09201595    -0.18100
C913        C  0.48869680  0.51305930  0.05843657    -0.18100
C914        C  0.49043474  0.50219807  0.44307055    -0.18100
H915        H  0.59173921  0.66843891  0.04067979     0.14900
H916        H  0.58816677  0.67466173  0.09964274     0.14900
H917        H  0.48783937  0.93731064  0.47340971     0.14900
H918        H  0.48764187  0.94328698  0.03547685     0.14900
H919        H  0.52399692  0.58686776  0.40006103     0.13100
H920        H  0.49202200  0.52772694  0.37961224     0.13100
H921        H  0.51339513  0.61298534  0.13177651     0.13100
H922        H  0.48475402  0.55172301  0.11391521     0.13100
H923        H  0.51780138  0.59479368  0.01574725     0.26400
H924        H  0.49006308  0.54351511  0.99794448     0.26400
N925        N  0.99869784  0.60559017  0.01557240    -0.36400
N926        N  0.02769942  0.56467149  0.48582019    -0.56900
N927        N  0.04706244  0.51098690  0.04712755    -0.36400
N928        N  0.02181464  0.55406740  0.08036360    -0.56900
C929        C  0.99658531  0.62863249  0.48942854     0.27200
C930        C  0.99426415  0.62305904  0.03982893     0.27200
C931        C  0.06184583  0.99768701  0.03203386     0.27200
C932        C  0.05739719  0.49138240  0.08065343     0.27200
C933        C  0.01224916  0.59005944  0.45619293     0.35800
C934        C  0.03932841  0.54089761  0.47386360     0.35800
C935        C  0.00574856  0.57572645  0.08828318     0.35800
C936        C  0.03052811  0.52558861  0.10412970     0.35800
C937        C  0.99038586  0.66096815  0.49684932    -0.21700
C938        C  0.98938259  0.65753165  0.02882305    -0.21700
C939        C  0.08093785  0.96852006  0.05590192    -0.21700
C940        C  0.07832151  0.96479020  0.08641016    -0.21700
C941        C  0.01487710  0.58259084  0.42590854    -0.22700
C942        C  0.03220082  0.55185319  0.43721592    -0.22700
C943        C  0.00434720  0.56098386  0.11733058    -0.22700
C944        C  0.02012718  0.52939354  0.12749226    -0.22700
C945        C  0.99810649  0.62106420  0.45748403    -0.18100
C946        C  0.99322638  0.60897827  0.07056939    -0.18100
C947        C  0.04889997  0.49660195  0.10665898    -0.18100
C948        C  0.05732535  0.50999226  0.49616730    -0.18100
H949        H  0.98710127  0.68478260  0.48129999     0.14900
H950        H  0.98547201  0.67840511  0.04217617     0.14900
H951        H  0.09525276  0.95101797  0.05219236     0.14900
H952        H  0.09049534  0.94455349  0.11010120     0.14900
H953        H  0.00600790  0.59793279  0.39886004     0.13100
H954        H  0.03890832  0.53936410  0.42028979     0.13100
H955        H  0.99315045  0.57171629  0.12997554     0.13100
H956        H  0.02338830  0.51122189  0.14949097     0.13100
H957        H  0.99886070  0.57916466  0.01318935     0.26400
H958        H  0.02918436  0.53095869  0.03382263     0.26400
In959      In  0.45837725  0.93794461  0.09855206     1.36900
C960        C  0.48366711  0.89358121  0.07786078     0.77800
O961        O  0.44978404  0.96975403  0.04816459    -0.60600
O962        O  0.49051514  0.98587791  0.11287470    -0.51500
C963        C  0.39473936  0.95205752  0.07158322     0.70500
O964        O  0.39930829  0.93314360  0.05100487    -0.46400
C965        C  0.48494490  0.89951135  0.16622674     0.75200
O966        O  0.45081309  0.89518028  0.05769828    -0.58300
O967        O  0.49436903  0.93062500  0.17053648    -0.48300
O968        O  0.50292848  0.91526733  0.10757221    -0.54700
C969        C  0.47557422  0.98970879  0.07378830     0.85400
O970        O  0.42297789  0.96489224  0.10551362    -0.56600
O971        O  0.46124210  0.88946264  0.12809448    -0.59900
In972      In  0.09195795  0.93548218  0.46064917     1.36900
C973        C  0.07411255  0.89361629  0.49261404     0.77800
O974        O  0.10207075  0.97552557  0.00622685    -0.60600
O975        O  0.05254739  0.97721253  0.44254852    -0.51500
C976        C  0.15559927  0.94903202  0.48705620     0.70500
O977        O  0.15076638  0.92899612  0.50654259    -0.46400
C978        C  0.06397609  0.89603958  0.39239645     0.75200
O979        O  0.10628573  0.89909877  0.51151017    -0.58300
O980        O  0.05807908  0.92808568  0.38864491    -0.48300
O981        O  0.05180386  0.90957994  0.45785669    -0.54700
C982        C  0.07127051  0.98788592  0.48078183     0.85400
O983        O  0.12751150  0.96284939  0.45397065    -0.56600
O984        O  0.08472534  0.88517622  0.43041360    -0.59900
In985      In  0.09167275  0.93318990  0.21056831     1.36900
C986        C  0.07611755  0.97630279  0.24433691     0.77800
O987        O  0.08726380  0.98265050  0.18113665    -0.60600
O988        O  0.05535900  0.94124280  0.13853314    -0.51500
C989        C  0.15220101  0.91541747  0.23184733     0.70500
O990        O  0.15091717  0.93157833  0.25704882    -0.46400
C991        C  0.07134801  0.88107114  0.23097487     0.75200
O992        O  0.10738273  0.97407755  0.25857740    -0.58300
O993        O  0.05162608  0.89281815  0.19309999    -0.48300
O994        O  0.05375152  0.95685013  0.21325009    -0.54700
C995        C  0.06416303  0.97254538  0.14288683     0.85400
O996        O  0.12244421  0.90714189  0.19624546    -0.56600
O997        O  0.10262032  0.89239481  0.25560280    -0.59900
In998      In  0.45197126  0.93587810  0.34300664     1.36900
C999        C  0.46768917  0.98118744  0.31127639     0.77800
O1000       O  0.45012317  0.98422770  0.36956297    -0.60600
O1001       O  0.48803227  0.94660898  0.41425511    -0.51500
C1002       C  0.39147523  0.91625789  0.32055176     0.70500
O1003       O  0.39296334  0.93274236  0.29570651    -0.46400
C1004       C  0.47609256  0.88482498  0.32612372     0.75200
O1005       O  0.43581980  0.97303775  0.29137606    -0.58300
O1006       O  0.49410806  0.89669504  0.36372035    -0.48300
O1007       O  0.49048969  0.96601165  0.34645063    -0.54700
C1008       C  0.47564832  0.97658691  0.40829545     0.85400
O1009       O  0.42120501  0.90848512  0.35653354    -0.56600
O1010       O  0.44461383  0.89545529  0.29986033    -0.59900
N1011       N  0.50206381  0.86175820  0.26192968    -0.36400
N1012       N  0.52656601  0.81779951  0.22834234    -0.56900
N1013       N  0.54844617  0.76627463  0.29221139    -0.36400
N1014       N  0.52025576  0.80822382  0.32242039    -0.56900
C1015       C  0.49147325  0.88094345  0.22806494     0.27200
C1016       C  0.48685219  0.87508740  0.27643226     0.27200
C1017       C  0.55321367  0.74862332  0.26832891     0.27200
C1018       C  0.54998231  0.74341619  0.31795947     0.27200
C1019       C  0.51797861  0.84619998  0.20453128     0.35800
C1020       C  0.54185131  0.79567149  0.21973404     0.35800
C1021       C  0.50902502  0.83228925  0.33454505     0.35800
C1022       C  0.53484379  0.78255194  0.35153555     0.35800
C1023       C  0.47002039  0.90732243  0.22154166    -0.21700
C1024       C  0.46733579  0.90389465  0.25197522    -0.21700
C1025       C  0.55790279  0.71422359  0.27939679    -0.21700
C1026       C  0.55615525  0.71097210  0.31066247    -0.21700
C1027       C  0.52765394  0.84183430  0.18047707    -0.22700
C1028       C  0.54277387  0.80999418  0.19011835    -0.22700
C1029       C  0.51560883  0.82137844  0.37085673    -0.22700
C1030       C  0.53201594  0.79014515  0.38168126    -0.22700
C1031       C  0.50012734  0.87552610  0.20234277    -0.18100
C1032       C  0.49120245  0.86310079  0.31210081    -0.18100
C1033       C  0.54846361  0.75129405  0.34992813    -0.18100
C1034       C  0.55420135  0.76241002  0.23742173    -0.18100
H1035       H  0.45745523  0.92717009  0.19731370     0.14900
H1036       H  0.45269455  0.92132417  0.25527241     0.14900
H1037       H  0.56216105  0.69329215  0.26647180     0.14900
H1038       H  0.55914694  0.68715663  0.32600356     0.14900
H1039       H  0.52442326  0.85980033  0.15841841     0.13100
H1040       H  0.55329866  0.79888911  0.17682011     0.13100
H1041       H  0.50893382  0.83417158  0.38767408     0.13100
H1042       H  0.54001957  0.77454798  0.40822564     0.13100
H1043       H  0.52051697  0.84222464  0.27593925     0.26400
H1044       H  0.54834546  0.79269646  0.29454179     0.26400
N1045       N  0.04678210  0.85802579  0.29643557    -0.36400
N1046       N  0.02077378  0.81506311  0.32869401    -0.56900
N1047       N  0.99985016  0.76295252  0.26586204    -0.36400
N1048       N  0.02930839  0.80388665  0.23701394    -0.56900
C1049       C  0.05890149  0.87618125  0.33169331     0.27200
C1050       C  0.06375949  0.86984019  0.28356906     0.27200
C1051       C  0.99489005  0.74567947  0.28970588     0.27200
C1052       C  0.99954442  0.73958396  0.24151797     0.27200
C1053       C  0.02818319  0.84412099  0.35110146     0.35800
C1054       C  0.00308362  0.79403750  0.33485491     0.35800
C1055       C  0.03994437  0.82803998  0.22427543     0.35800
C1056       C  0.01460212  0.77821797  0.20787433     0.35800
C1057       C  0.08333844  0.90018586  0.34093358    -0.21700
C1058       C  0.08620658  0.89647008  0.31066143    -0.21700
C1059       C  0.99161984  0.71098395  0.28025855    -0.21700
C1060       C  0.99416365  0.70717646  0.24972513    -0.21700
C1061       C  0.01516275  0.84142085  0.37161965    -0.22700
C1062       C  0.99918918  0.80984094  0.36123316    -0.22700
C1063       C  0.03300886  0.81714163  0.18773318    -0.22700
C1064       C  0.01697725  0.78578831  0.17737501    -0.22700
C1065       C  0.04851481  0.87217953  0.35581090    -0.18100
C1066       C  0.05808884  0.85865868  0.24678312    -0.18100
C1067       C  0.00114451  0.74703304  0.20968452    -0.18100
C1068       C  0.99181284  0.76024410  0.31847083    -0.18100
H1069       H  0.09772260  0.91868385  0.36682466     0.14900
H1070       H  0.10307392  0.91219157  0.30940966     0.14900
H1071       H  0.98769872  0.69028161  0.29371325     0.14900
H1072       H  0.99221927  0.68313976  0.23536768     0.14900
H1073       H  0.01702661  0.86027862  0.39203204     0.13100
H1074       H  0.98637328  0.79971800  0.37210433     0.13100
H1075       H  0.03946307  0.82989154  0.17065986     0.13100
H1076       H  0.00900059  0.77006223  0.15100033     0.13100
H1077       H  0.02582907  0.84082698  0.27997111     0.26400
H1078       H  0.99905686  0.78936156  0.26240222     0.26400
In1079     In  0.58492542  0.68741781  0.19771037     1.36900
C1080       C  0.56014278  0.64417586  0.22024373     0.77800
O1081       O  0.59496605  0.72150011  0.24774029    -0.60600
O1082       O  0.55074126  0.73355041  0.18262274    -0.51500
C1083       C  0.64899421  0.70102065  0.22589446     0.70500
O1084       O  0.64388949  0.68194572  0.24584882    -0.46400
C1085       C  0.55777832  0.64988010  0.12889833     0.75200
O1086       O  0.59281027  0.64509964  0.23939289    -0.58300
O1087       O  0.55048183  0.68157515  0.12557374    -0.48300
O1088       O  0.54084948  0.66534550  0.18998192    -0.54700
C1089       C  0.56736740  0.73932686  0.22191822     0.85400
O1090       O  0.62108980  0.71423946  0.19199818    -0.56600
O1091       O  0.57980724  0.63873340  0.16674943    -0.59900
In1092     In  0.95838996  0.68566546  0.35541485     1.36900
C1093       C  0.98364656  0.64190963  0.33376615     0.77800
O1094       O  0.95068556  0.71875179  0.30627595    -0.60600
O1095       O  0.99229234  0.73264745  0.37164288    -0.51500
C1096       C  0.89429100  0.70066557  0.32634413     0.70500
O1097       O  0.89957893  0.68015306  0.30763535    -0.46400
C1098       C  0.98288944  0.64620119  0.42207835     0.75200
O1099       O  0.95060745  0.64553384  0.31163719    -0.58300
O1100       O  0.99398059  0.67673426  0.42722809    -0.48300
O1101       O  0.00315099  0.66090571  0.36643869    -0.54700
C1102       C  0.97740841  0.73748637  0.33272244     0.85400
O1103       O  0.92212548  0.71466949  0.35961071    -0.56600
O1104       O  0.95815272  0.63752872  0.38355542    -0.59900
C1105       C  0.72373299  0.72323794  0.22807281    -0.27400
C1106       C  0.75355439  0.71094978  0.26867993     0.02200
C1107       C  0.74881144  0.69710436  0.29580206     0.30300
C1108       C  0.71482127  0.69491302  0.28183442    -0.19200
C1109       C  0.68484970  0.70634995  0.24079409    -0.28600
C1110       C  0.68965881  0.72095356  0.21400728     0.44400
C1111       C  0.78919601  0.71116435  0.28183826     0.05500
O1112       O  0.77712277  0.68481116  0.33570670    -0.57100
H1113       H  0.71189539  0.68364655  0.30307038     0.18500
O1114       O  0.66128349  0.73267479  0.17379838    -0.63800
H1115       H  0.72681526  0.73439943  0.20694554     0.16900
C1116       C  0.79446976  0.69586915  0.25584546     0.29200
C1117       C  0.82865027  0.69357685  0.27037055    -0.24700
C1118       C  0.85824246  0.70656352  0.31069577    -0.24000
C1119       C  0.85284553  0.72284661  0.33617203     0.40600
C1120       C  0.81857951  0.72515961  0.32159261    -0.26400
O1121       O  0.76670077  0.68110673  0.21734243    -0.58300
H1122       H  0.83202952  0.68085065  0.25020945     0.16300
O1123       O  0.88086465  0.73586791  0.37577660    -0.59800
H1124       H  0.81503553  0.73740565  0.34182721     0.14700
H1125       H  0.65368797  0.71296566  0.15432041     0.46600
H1126       H  0.76108803  0.69715338  0.19510960     0.42000
H1127       H  0.88754451  0.71752019  0.39645913     0.45400
H1128       H  0.78071816  0.66105270  0.33081110     0.36900
C1129       C  0.47028519  0.53740327  0.23943597    -0.27400
C1130       C  0.50415313  0.55196902  0.26983559     0.02200
C1131       C  0.52470579  0.54476235  0.31360658     0.30300
C1132       C  0.51197201  0.52202646  0.32634586    -0.19200
C1133       C  0.47854683  0.50662420  0.29602778    -0.28600
C1134       C  0.45727968  0.51492944  0.25232742     0.44400
C1135       C  0.51796790  0.57474213  0.25578943     0.05500
O1136       O  0.55670808  0.56076645  0.34414374    -0.57100
H1137       H  0.52846619  0.51642556  0.36022660     0.18500
O1138       O  0.42469407  0.99999263  0.22190031    -0.63800
H1139       H  0.45422256  0.54300513  0.20562457     0.16900
C1140       C  0.55031568  0.56753537  0.26639069     0.29200
C1141       C  0.56406028  0.59058951  0.25511710    -0.24700
C1142       C  0.54534651  0.62040433  0.23211675    -0.24000
C1143       C  0.51233446  0.62697736  0.22022202     0.40600
C1144       C  0.49902371  0.60427982  0.23236785    -0.26400
O1145       O  0.56859858  0.53796552  0.28760250    -0.58300
H1146       H  0.58913249  0.58487942  0.26381833     0.16300
O1147       O  0.49353468  0.65616497  0.19827447    -0.59800
H1148       H  0.47411617  0.61002179  0.22408989     0.14700
H1149       H  0.40741284  0.01690624  0.21635448     0.46600
H1150       H  0.55665844  0.51990736  0.26520522     0.42000
H1151       H  0.47585618  0.64917222  0.16772218     0.45400
H1152       H  0.57488404  0.54252094  0.35687808     0.36900
C1153       C  0.02371925  0.51634135  0.26917678    -0.27400
C1154       C  0.04056628  0.54811313  0.28612319     0.02200
C1155       C  0.07096260  0.55537640  0.29206614     0.30300
C1156       C  0.08352164  0.53113078  0.28018110    -0.19200
C1157       C  0.06554651  0.49998993  0.26144734    -0.28600
C1158       C  0.03570017  0.99253966  0.25648929     0.44400
C1159       C  0.02609019  0.57303725  0.29768930     0.05500
O1160       O  0.08799668  0.58632468  0.30838775    -0.57100
H1161       H  0.10641438  0.53723761  0.28399304     0.18500
O1162       O  0.01769929  0.96216999  0.23874018    -0.63800
H1163       H  0.00101460  0.50991619  0.26562136     0.16900
C1164       C  0.98974319  0.58141917  0.26846794     0.29200
C1165       C  0.97626267  0.60369347  0.28081204    -0.24700
C1166       C  0.99852616  0.61788002  0.32210447    -0.24000
C1167       C  0.03492405  0.60950898  0.35135163     0.40600
C1168       C  0.04838146  0.58724251  0.33896713    -0.26400
O1169       O  0.96748678  0.56890098  0.22729683    -0.58300
H1170       H  0.94835147  0.61017820  0.25775478     0.16300
O1171       O  0.05762571  0.62302230  0.39201695    -0.59800
H1172       H  0.07624128  0.58055495  0.36201346     0.14700
H1173       H  0.02747447  0.94694847  0.26344324     0.46600
H1174       H  0.95171913  0.55236812  0.22571855     0.42000
H1175       H  0.06300859  0.60394155  0.41127579     0.45400
H1176       H  0.07486999  0.60205008  0.28342138     0.36900
C1177       C  0.31905007  0.91008492  0.32474290    -0.27400
C1178       C  0.28951781  0.90075932  0.28227337     0.02200
C1179       C  0.29467857  0.89399447  0.25347748     0.30300
C1180       C  0.32820261  0.89839116  0.26657452    -0.19200
C1181       C  0.35737354  0.90824390  0.30873547    -0.28600
C1182       C  0.35275979  0.91347341  0.33813324     0.44400
C1183       C  0.25329648  0.90109827  0.26761412     0.05500
O1184       O  0.26701321  0.88364766  0.21219983    -0.57100
H1185       H  0.33139573  0.89425172  0.24361868     0.18500
O1186       O  0.38060655  0.92377301  0.37939499    -0.63800
H1187       H  0.31580902  0.91628966  0.34725504     0.16900
C1188       C  0.24646314  0.88647531  0.29248944     0.29200
C1189       C  0.21312146  0.89066168  0.28015529    -0.24700
C1190       C  0.18596901  0.90844288  0.24253748    -0.24000
C1191       C  0.19218830  0.92178858  0.21677303     0.40600
C1192       C  0.22565294  0.91842832  0.22955718    -0.26400
O1193       O  0.27188119  0.86730539  0.32818463    -0.58300
H1194       H  0.20845960  0.87999121  0.30001346     0.16300
O1195       O  0.16613190  0.93945924  0.17991534    -0.59800
H1196       H  0.23028730  0.93053908  0.21030777     0.14700
H1197       H  0.38163314  0.94905397  0.37787630     0.46600
H1198       H  0.27881280  0.88074372  0.35295467     0.42000
H1199       H  0.16961873  0.96381044  0.18877974     0.45400
H1200       H  0.26688951  0.85828750  0.21355215     0.36900
C1201       C  0.25504756  0.94443612  0.05117814    -0.27400
C1202       C  0.25808353  0.96266756  0.02476603     0.02200
C1203       C  0.22750616  0.97810867  0.48699454     0.30300
C1204       C  0.19449630  0.97414497  0.47555706    -0.19200
C1205       C  0.19123643  0.95506470  0.50139589    -0.28600
C1206       C  0.22218967  0.94065544  0.04002420     0.44400
C1207       C  0.29272703  0.96333826  0.03550176     0.05500
O1208       O  0.22952427  0.99660950  0.46072936    -0.57100
H1209       H  0.17127698  0.98552893  0.44593182     0.20100
O1210       O  0.22057755  0.92198808  0.06654546    -0.63800
H1211       H  0.27814628  0.93217834  0.08007617     0.16900
C1212       C  0.32385700  0.97517694  0.07561755     0.29200
C1213       C  0.35670078  0.97257003  0.08634718    -0.24700
C1214       C  0.35928365  0.95767219  0.05780606    -0.24000
C1215       C  0.32788526  0.94671894  0.01717061     0.40600
C1216       C  0.29509816  0.94965018  0.00637032    -0.26400
O1217       O  0.32230553  0.98979216  0.10425428    -0.58300
H1218       H  0.38032860  0.98139507  0.11761731     0.16300
O1219       O  0.32892106  0.93221468  0.98807296    -0.59800
H1220       H  0.27148363  0.94016175  0.47556495     0.14700
H1221       H  0.22634669  0.93849127  0.08850661     0.46600
H1222       H  0.33235425  0.97245442  0.12715501     0.42000
H1223       H  0.32551228  0.95154381  0.97020952     0.45400
H1224       H  0.23712333  0.01988791  0.47347874     0.36900
C1225       C  0.07256390  0.83890000  0.06621140    -0.27400
C1226       C  0.03809642  0.82537990  0.03685180     0.02200
C1227       C  0.01598211  0.83436800  0.49325292     0.30300
C1228       C  0.02815088  0.85682795  0.47962680    -0.19200
C1229       C  0.06266844  0.87009480  0.50875276    -0.28600
C1230       C  0.08499903  0.86107257  0.05240796     0.44400
C1231       C  0.02520980  0.80180674  0.05154941     0.05500
O1232       O  0.98238803  0.82116353  0.46353612    -0.57100
H1233       H  0.01055309  0.86351293  0.44592575     0.18500
O1234       O  0.11871682  0.87403767  0.08175070    -0.63800
H1235       H  0.08971427  0.83265277  0.09999008     0.16900
C1236       C  0.04467042  0.77246379  0.07579208     0.29200
C1237       C  0.03027261  0.74903545  0.08586820    -0.24700
C1238       C  0.99661170  0.75447089  0.07220540    -0.24000
C1239       C  0.97774029  0.78440737  0.04930694     0.40600
C1240       C  0.99218052  0.80789729  0.03937697    -0.26400
O1241       O  0.07685477  0.76555584  0.08778820    -0.58300
H1242       H  0.04527041  0.72619278  0.10376314     0.16300
O1243       O  0.94522155  0.79100322  0.03643437    -0.59800
H1244       H  0.97734202  0.83085289  0.02168407     0.14700
H1245       H  0.11715989  0.89299265  0.09627369     0.46600
H1246       H  0.09470902  0.77014915  0.11906552     0.42000
H1247       H  0.95037566  0.80305753  0.06099732     0.45400
H1248       H  0.98524856  0.79919888  0.45416279     0.36900
C1249       C  0.49840496  0.81285494  0.04178681    -0.27400
C1250       C  0.52915893  0.82147720  0.04935632     0.02200
C1251       C  0.54527135  0.85353083  0.06728373     0.30300
C1252       C  0.53032944  0.87660104  0.07697830    -0.19200
C1253       C  0.49897205  0.86838858  0.06812038    -0.28600
C1254       C  0.48320360  0.83610804  0.05089576     0.44400
C1255       C  0.54160893  0.79827273  0.03391562     0.05500
O1256       O  0.57388379  0.86349058  0.07225599    -0.57100
H1257       H  0.54265464  0.90146251  0.09010767     0.18500
O1258       O  0.45294654  0.82706672  0.04270145    -0.63800
H1259       H  0.48575715  0.78821798  0.02791807     0.16900
C1260       C  0.57671961  0.78606994  0.06096570     0.29200
C1261       C  0.58714056  0.76423946  0.04444538    -0.24700
C1262       C  0.56265774  0.75370510  0.50143017    -0.24000
C1263       C  0.52746784  0.76583419  0.47462465     0.40600
C1264       C  0.51740488  0.78808686  0.49088743    -0.26400
O1265       O  0.60076349  0.79480147  0.10357700    -0.58300
H1266       H  0.61414495  0.75483312  0.06556759     0.16300
O1267       O  0.50274765  0.75673646  0.43214820    -0.59800
H1268       H  0.49040993  0.79757054  0.46964232     0.14700
H1269       H  0.46122008  0.81797838  0.07026390     0.46600
H1270       H  0.59807917  0.77707781  0.11829322     0.42000
H1271       H  0.48898095  0.73781166  0.43093878     0.45400
H1272       H  0.59415895  0.86435236  0.10369394     0.36900
C1273       C  0.74670094  0.64379722  0.04116277    -0.27400
C1274       C  0.75422351  0.65843968  0.01711141     0.02200
C1275       C  0.72634555  0.67432853  0.47762661     0.30300
C1276       C  0.69218413  0.67567546  0.46329000    -0.19200
C1277       C  0.68538555  0.66248559  0.48843571    -0.28600
C1278       C  0.71280040  0.64630648  0.02745733     0.44400
C1279       C  0.79131109  0.65822131  0.03414857     0.05500
O1280       O  0.73232874  0.68999811  0.45351071    -0.57100
H1281       H  0.67134212  0.68871592  0.43345211     0.18500
O1282       O  0.70683999  0.63301071  0.05261508    -0.63800
H1283       H  0.76729300  0.63070779  0.07102882     0.16900
C1284       C  0.82052664  0.66698052  0.07730560     0.29200
C1285       C  0.85488053  0.66791785  0.09214020    -0.24700
C1286       C  0.86071334  0.66188223  0.06412795    -0.24000
C1287       C  0.83181140  0.65297018  0.02122647     0.40600
C1288       C  0.79767005  0.65052109  0.00680212    -0.26400
O1289       O  0.81572849  0.67625723  0.10486013    -0.58300
H1290       H  0.87678285  0.67531869  0.12509463     0.16300
O1291       O  0.83664021  0.64687237  0.49300769    -0.59800
H1292       H  0.77606804  0.64295703  0.47390195     0.14700
H1293       H  0.69706120  0.60976186  0.04095953     0.46600
H1294       H  0.80919020  0.70086505  0.09895387     0.42000
H1295       H  0.84386309  0.62262130  0.99728954     0.45400
H1296       H  0.74188347  0.71297204  0.46658848     0.36900
In1297     In  0.58867284  0.68580858  0.95122490     1.36900
C1298       C  0.57311090  0.72952952  0.98460110     0.77800
O1299       O  0.58709140  0.73529371  0.92383469    -0.60600
O1300       O  0.55341948  0.69529633  0.87979675    -0.51500
C1301       C  0.65059842  0.66892700  0.97555753     0.70500
O1302       O  0.64792836  0.68356928  0.50022294    -0.46400
C1303       C  0.56377703  0.63420039  0.96622747     0.75200
O1304       O  0.60507355  0.72284441  0.50315942    -0.58300
O1305       O  0.54580262  0.64708720  0.92917730    -0.48300
O1306       O  0.55031367  0.71365966  0.95002136    -0.54700
C1307       C  0.56337992  0.72627595  0.88517680     0.85400
O1308       O  0.62148780  0.66149686  0.93874260    -0.56600
O1309       O  0.59579344  0.64346216  0.49242246    -0.59900
In1310     In  0.95970338  0.68368134  0.60672070     1.36900
C1311       C  0.98256165  0.72910308  0.58353210     0.77800
O1312       O  0.96031067  0.73132400  0.63577201    -0.60600
O1313       O  0.99645386  0.69179849  0.67859174    -0.51500
C1314       C  0.89634399  0.66786898  0.57902566     0.70500
O1315       O  0.90061566  0.68305666  0.55600129    -0.46400
C1316       C  0.97910551  0.63176470  0.58498425     0.75200
O1317       O  0.95003438  0.72672957  0.56458477    -0.58300
O1318       O  0.99487302  0.63773256  0.62398801    -0.48300
O1319       O  0.00265588  0.70795387  0.61352257    -0.54700
C1320       C  0.98544789  0.72226061  0.67402238     0.85400
O1321       O  0.92473017  0.65953298  0.61602753    -0.56600
O1322       O  0.95148816  0.64931299  0.55837225    -0.59900
N1323       N  0.53802736  0.61272255  0.53103468    -0.36400
N1324       N  0.51838361  0.55912309  0.96984693    -0.56900
N1325       N  0.49266979  0.51708053  0.50234051    -0.36400
N1326       N  0.51573482  0.56854781  0.56674085    -0.56900
C1327       C  0.55398986  0.62486560  0.51697070     0.27200
C1328       C  0.55050510  0.63111121  0.56629888     0.27200
C1329       C  0.49166012  0.49414531  0.97708132     0.27200
C1330       C  0.49087110  0.99911666  0.52867085     0.27200
C1331       C  0.52829300  0.58355037  0.95651993     0.35800
C1332       C  0.50196925  0.53415416  0.93968359     0.35800
C1333       C  0.52289835  0.59763649  0.58893915     0.35800
C1334       C  0.49948493  0.54693113  0.57446649     0.35800
C1335       C  0.57579640  0.65221564  0.54306080    -0.21700
C1336       C  0.57377653  0.65588230  0.57406006    -0.21700
C1337       C  0.48914415  0.96130203  0.98739502    -0.21700
C1338       C  0.48923330  0.96439513  0.52024087    -0.21700
C1339       C  0.51875638  0.57371640  0.91813169    -0.22700
C1340       C  0.50190678  0.54272181  0.90735664    -0.22700
C1341       C  0.51130903  0.59430454  0.61104147    -0.22700
C1342       C  0.49637789  0.56231995  0.60174486    -0.22700
C1343       C  0.54816114  0.61326652  0.98014711    -0.18100
C1344       C  0.54175735  0.62636363  0.59200847    -0.18100
C1345       C  0.48874017  0.51304284  0.55847585    -0.18100
C1346       C  0.49034858  0.50226224  0.94297964    -0.18100
H1347       H  0.59165095  0.66849682  0.54061646     0.14900
H1348       H  0.58805641  0.67473358  0.59955565     0.14900
H1349       H  0.48754925  0.93737472  0.97313116     0.14900
H1350       H  0.48790737  0.94326037  0.53574139     0.14900
H1351       H  0.52381489  0.58698595  0.89991226     0.13100
H1352       H  0.49183636  0.52785301  0.87945661     0.13100
H1353       H  0.51328638  0.61302074  0.63166718     0.13100
H1354       H  0.48464277  0.55175012  0.61379734     0.13100
H1355       H  0.51784357  0.59473240  0.51579443     0.26400
H1356       H  0.49007100  0.54346768  0.49795528     0.26400
N1357       N  0.99859365  0.60559560  0.51538149    -0.36400
N1358       N  0.02767579  0.56462413  0.98589062    -0.56900
N1359       N  0.04709689  0.51104294  0.54708047    -0.36400
N1360       N  0.02174324  0.55408267  0.58020449    -0.56900
C1361       C  0.99666658  0.62862735  0.98960198     0.27200
C1362       C  0.99420436  0.62307845  0.53967312     0.27200
C1363       C  0.06184137  0.99770669  0.53195665     0.27200
C1364       C  0.05732058  0.49137447  0.58050942     0.27200
C1365       C  0.01225807  0.59003803  0.95629942     0.35800
C1366       C  0.03924782  0.54083480  0.97387908     0.35800
C1367       C  0.00571104  0.57576141  0.58815343     0.35800
C1368       C  0.03047880  0.52561767  0.60400054     0.35800
C1369       C  0.99042338  0.66095273  0.99698848    -0.21700
C1370       C  0.98936299  0.65755597  0.52869940    -0.21700
C1371       C  0.08081122  0.96846278  0.55571753    -0.21700
C1372       C  0.07814878  0.96471238  0.58618451    -0.21700
C1373       C  0.01484398  0.58256610  0.92597927    -0.22700
C1374       C  0.03210588  0.55179879  0.93722460    -0.22700
C1375       C  0.00434708  0.56104402  0.61724211    -0.22700
C1376       C  0.02011736  0.52945097  0.62740201    -0.22700
C1377       C  0.99817361  0.62106275  0.95764447    -0.18100
C1378       C  0.99319762  0.60901362  0.57044389    -0.18100
C1379       C  0.04882413  0.49661079  0.60651364    -0.18100
C1380       C  0.05727267  0.50994393  0.99619373    -0.18100
H1381       H  0.98709803  0.68476054  0.98140289     0.14900
H1382       H  0.98551073  0.67844046  0.54210313     0.14900
H1383       H  0.09506662  0.95092372  0.55195093     0.14900
H1384       H  0.09023106  0.94441848  0.60979500     0.14900
H1385       H  0.00599431  0.59792743  0.89895239     0.13100
H1386       H  0.03878449  0.53930938  0.92026876     0.13100
H1387       H  0.99318308  0.57179463  0.62991898     0.13100
H1388       H  0.02339905  0.51129693  0.64942825     0.13100
H1389       H  0.99872549  0.57916759  0.51297390     0.26400
H1390       H  0.02934431  0.53111443  0.53388201     0.26400
In1391     In  0.45835300  0.93793639  0.59850278     1.36900
C1392       C  0.48367006  0.89354005  0.57785579     0.77800
O1393       O  0.44979151  0.96974915  0.54813456    -0.60600
O1394       O  0.49049600  0.98586607  0.61285831    -0.51500
C1395       C  0.39472179  0.95208158  0.57155448     0.70500
O1396       O  0.39927838  0.93315360  0.55097295    -0.46400
C1397       C  0.48492352  0.89952764  0.66618698     0.75200
O1398       O  0.45081269  0.89515458  0.55767374    -0.58300
O1399       O  0.49436147  0.93063297  0.67048034    -0.48300
O1400       O  0.50292233  0.91523574  0.60755743    -0.54700
C1401       C  0.47558002  0.98970028  0.57378226     0.85400
O1402       O  0.42296855  0.96491541  0.60547473    -0.56600
O1403       O  0.46118904  0.88947623  0.62806178    -0.59900
In1404     In  0.09197381  0.93548185  0.96070817     1.36900
C1405       C  0.07413589  0.89364387  0.99270215     0.77800
O1406       O  0.10209308  0.97553661  0.50618154    -0.60600
O1407       O  0.05254864  0.97721121  0.94258105    -0.51500
C1408       C  0.15563347  0.94898003  0.98714552     0.70500
O1409       O  0.15077538  0.92890643  0.00657839    -0.46400
C1410       C  0.06395669  0.89605769  0.89240271     0.75200
O1411       O  0.10631280  0.89916878  0.01164520    -0.58300
O1412       O  0.05808982  0.92810876  0.88868453    -0.48300
O1413       O  0.05183420  0.90955331  0.95789905    -0.54700
C1414       C  0.07124477  0.98786383  0.98081887     0.85400
O1415       O  0.12756702  0.96286862  0.95411357    -0.56600
O1416       O  0.08469348  0.88517899  0.93041379    -0.59900
In1417     In  0.09162098  0.93323103  0.71046339     1.36900
C1418       C  0.07611244  0.97640797  0.74423981     0.77800
O1419       O  0.08718759  0.98267237  0.68098895    -0.60600
O1420       O  0.05527273  0.94125906  0.63840877    -0.51500
C1421       C  0.15219759  0.91551872  0.73179232     0.70500
O1422       O  0.15087607  0.93161735  0.75699365    -0.46400
C1423       C  0.07126357  0.88111963  0.73088690     0.75200
O1424       O  0.10736884  0.97416181  0.75846005    -0.58300
O1425       O  0.05157327  0.89282046  0.69299172    -0.48300
O1426       O  0.05373039  0.95696157  0.71315514    -0.54700
C1427       C  0.06408054  0.97255930  0.64274501     0.85400
O1428       O  0.12245354  0.90726315  0.69616210    -0.56600
O1429       O  0.10252102  0.89248015  0.75552571    -0.59900
In1430     In  0.45199533  0.93594016  0.84297590     1.36900
C1431       C  0.46761904  0.98126280  0.81115474     0.77800
O1432       O  0.45007638  0.98426766  0.86948882    -0.60600
O1433       O  0.48803682  0.94668919  0.91421177    -0.51500
C1434       C  0.39153066  0.91632725  0.82059449     0.70500
O1435       O  0.39299575  0.93288699  0.79577051    -0.46400
C1436       C  0.47615483  0.88489041  0.82613553     0.75200
O1437       O  0.43577348  0.97297428  0.79120370    -0.58300
O1438       O  0.49421995  0.89687124  0.86368821    -0.48300
O1439       O  0.49044139  0.96621971  0.84642496    -0.54700
C1440       C  0.47560632  0.97664784  0.90822561     0.85400
O1441       O  0.42127046  0.90847459  0.85652136    -0.56600
O1442       O  0.44463608  0.89541612  0.79991734    -0.59900
N1443       N  0.50212492  0.86182401  0.76195438    -0.36400
N1444       N  0.52665299  0.81787308  0.72839526    -0.56900
N1445       N  0.54838289  0.76628921  0.79212362    -0.36400
N1446       N  0.52017187  0.80823056  0.82230347    -0.56900
C1447       C  0.49146472  0.88096322  0.72802777     0.27200
C1448       C  0.48686576  0.87512223  0.77640933     0.27200
C1449       C  0.55314429  0.74864766  0.76823127     0.27200
C1450       C  0.54981869  0.74340684  0.81777565     0.27200
C1451       C  0.51803599  0.84626129  0.70455619     0.35800
C1452       C  0.54193622  0.79574516  0.71978393     0.35800
C1453       C  0.50902288  0.83232726  0.83449803     0.35800
C1454       C  0.53474412  0.78254935  0.85140416     0.35800
C1455       C  0.46992618  0.90728335  0.72142546    -0.21700
C1456       C  0.46725903  0.90386705  0.75187447    -0.21700
C1457       C  0.55771185  0.71422737  0.77918115    -0.21700
C1458       C  0.55590123  0.71095328  0.81039247    -0.21700
C1459       C  0.52770057  0.84189336  0.68049134    -0.22700
C1460       C  0.54284607  0.81006394  0.69015583    -0.22700
C1461       C  0.51562741  0.82142681  0.87082368    -0.22700
C1462       C  0.53196921  0.79016330  0.88159254    -0.22700
C1463       C  0.50013388  0.87555907  0.70232155    -0.18100
C1464       C  0.49123904  0.86315539  0.81209304    -0.18100
C1465       C  0.54832587  0.75127852  0.84976464    -0.18100
C1466       C  0.55422645  0.76246099  0.73741468    -0.18100
H1467       H  0.45728731  0.92707956  0.69712863     0.14900
H1468       H  0.45255164  0.92124615  0.75511778     0.14900
H1469       H  0.56193147  0.69329949  0.76621313     0.14900
H1470       H  0.55879515  0.68712031  0.82564537     0.14900
H1471       H  0.52442685  0.85984243  0.65839162     0.13100
H1472       H  0.55334591  0.79895053  0.67683140     0.13100
H1473       H  0.50901308  0.83425457  0.88768787     0.13100
H1474       H  0.53997672  0.77456792  0.90813927     0.13100
H1475       H  0.52066567  0.84236168  0.77605054     0.26400
H1476       H  0.54836429  0.79271098  0.79453999     0.26400
N1477       N  0.04669874  0.85808361  0.79637047    -0.36400
N1478       N  0.02074572  0.81507574  0.82868857    -0.56900
N1479       N  0.99983476  0.76294080  0.76588366    -0.36400
N1480       N  0.02923453  0.80392366  0.73697559    -0.56900
C1481       C  0.05885991  0.87620783  0.83166725     0.27200
C1482       C  0.06368823  0.86988104  0.78351048     0.27200
C1483       C  0.99487456  0.74566770  0.78972820     0.27200
C1484       C  0.99951422  0.73957703  0.74152391     0.27200
C1485       C  0.02812045  0.84415554  0.85105324     0.35800
C1486       C  0.00304451  0.79405179  0.83484075     0.35800
C1487       C  0.03984077  0.82808593  0.72420386     0.35800
C1488       C  0.01454458  0.77823557  0.70785814     0.35800
C1489       C  0.08333536  0.90017615  0.84093990    -0.21700
C1490       C  0.08618668  0.89646913  0.81065032    -0.21700
C1491       C  0.99159399  0.71097174  0.78026876    -0.21700
C1492       C  0.99412296  0.70716903  0.74972033    -0.21700
C1493       C  0.01505985  0.84147444  0.87152616    -0.22700
C1494       C  0.99910399  0.80988406  0.86116313    -0.22700
C1495       C  0.03289654  0.81717558  0.68766100    -0.22700
C1496       C  0.01689932  0.78580766  0.67734235    -0.22700
C1497       C  0.04847414  0.87220886  0.85578898    -0.18100
C1498       C  0.05799183  0.85871186  0.74669989    -0.18100
C1499       C  0.00111470  0.74703350  0.70969031    -0.18100
C1500       C  0.99179781  0.76023805  0.81849409    -0.18100
H1501       H  0.09775895  0.91864189  0.86686699     0.14900
H1502       H  0.10308351  0.91216664  0.80942825     0.14900
H1503       H  0.98767718  0.69026424  0.79372438     0.14900
H1504       H  0.99216314  0.68313530  0.73534673     0.14900
H1505       H  0.01688891  0.86035097  0.89189767     0.13100
H1506       H  0.98626683  0.79977329  0.87201145     0.13100
H1507       H  0.03933033  0.82992202  0.67056529     0.13100
H1508       H  0.00893298  0.77007320  0.65098098     0.13100
H1509       H  0.02571534  0.84091690  0.77988349     0.26400
H1510       H  0.99906062  0.78935001  0.76244122     0.26400
In1511     In  0.58488720  0.68746121  0.69764514     1.36900
C1512       C  0.56003993  0.64420023  0.72007557     0.77800
O1513       O  0.59493651  0.72148754  0.74771581    -0.60600
O1514       O  0.55076812  0.73363398  0.68260349    -0.51500
C1515       C  0.64896495  0.70109590  0.72587293     0.70500
O1516       O  0.64384209  0.68201099  0.74580236    -0.46400
C1517       C  0.55774908  0.64989216  0.62887069     0.75200
O1518       O  0.59270939  0.64509608  0.73923082    -0.58300
O1519       O  0.55040580  0.68157687  0.62551694    -0.48300
O1520       O  0.54077732  0.66542751  0.68987694    -0.54700
C1521       C  0.56737834  0.73936875  0.72190339     0.85400
O1522       O  0.62106510  0.71429741  0.69195050    -0.56600
O1523       O  0.57983025  0.63877481  0.66673136    -0.59900
In1524     In  0.95843101  0.68562689  0.85552157     1.36900
C1525       C  0.98368676  0.64187352  0.83385880     0.77800
O1526       O  0.95073108  0.71867231  0.80634718    -0.60600
O1527       O  0.99225610  0.73268134  0.87168274    -0.51500
C1528       C  0.89431170  0.70054632  0.82644879     0.70500
O1529       O  0.89962890  0.67993724  0.80784497    -0.46400
C1530       C  0.98295235  0.64620235  0.92223784     0.75200
O1531       O  0.95064734  0.64557493  0.81166488    -0.58300
O1532       O  0.99410701  0.67670341  0.92736548    -0.48300
O1533       O  0.00319447  0.66077846  0.86661889    -0.54700
C1534       C  0.97740483  0.73746970  0.83276535     0.85400
O1535       O  0.92212095  0.71468209  0.85959922    -0.56600
O1536       O  0.95815222  0.63755184  0.88372519    -0.59900
C1537       C  0.72379263  0.72323587  0.72818961    -0.27400
C1538       C  0.75358436  0.71095986  0.76882428     0.02200
C1539       C  0.74880096  0.69721564  0.79594637     0.30300
C1540       C  0.71478882  0.69505064  0.78192081    -0.19200
C1541       C  0.68484130  0.70644674  0.74083902    -0.28600
C1542       C  0.68970100  0.72101705  0.71408574     0.44400
C1543       C  0.78923117  0.71107712  0.78199818     0.05500
O1544       O  0.77709326  0.68499444  0.83590595    -0.57100
H1545       H  0.71182691  0.68383607  0.80314583     0.18500
O1546       O  0.66136113  0.73277380  0.67387877    -0.63800
H1547       H  0.72691475  0.73433509  0.70707267     0.16900
C1548       C  0.79450538  0.69559491  0.75609011     0.29200
C1549       C  0.82867899  0.69327173  0.77059660    -0.24700
C1550       C  0.85826322  0.70641951  0.81081668    -0.24000
C1551       C  0.85286504  0.72286655  0.83621395     0.40600
C1552       C  0.81860700  0.72519789  0.82165955    -0.26400
O1553       O  0.76674039  0.68070166  0.71768968    -0.58300
H1554       H  0.83205829  0.68041249  0.75050071     0.16300
O1555       O  0.88087684  0.73604579  0.87571581    -0.59800
H1556       H  0.81506086  0.73757516  0.84183082     0.14700
H1557       H  0.65374528  0.71307182  0.65438545     0.46600
H1558       H  0.76108663  0.69663677  0.69534671     0.42000
H1559       H  0.88762563  0.71779676  0.89653187     0.45400
H1560       H  0.78061697  0.66116264  0.83112452     0.36900
C1561       C  0.47020256  0.53727388  0.73917297    -0.27400
C1562       C  0.50401552  0.55194574  0.76955933     0.02200
C1563       C  0.52451909  0.54489960  0.81335514     0.30300
C1564       C  0.51179239  0.52221697  0.82614726    -0.19200
C1565       C  0.47842962  0.50669420  0.79584765    -0.28600
C1566       C  0.45720585  0.51484232  0.75211084     0.44400
C1567       C  0.51781204  0.57469611  0.75548172     0.05500
O1568       O  0.55646931  0.56099797  0.84385607    -0.57100
H1569       H  0.52825276  0.51673508  0.86005070     0.18500
O1570       O  0.42468504  0.99978325  0.72170531    -0.63800
H1571       H  0.45417916  0.54276092  0.70534175     0.16900
C1572       C  0.55015975  0.56749254  0.76608829     0.29200
C1573       C  0.56391411  0.59056129  0.75484014    -0.24700
C1574       C  0.54521210  0.62039254  0.73187472    -0.24000
C1575       C  0.51218990  0.62695126  0.71995910     0.40600
C1576       C  0.49886980  0.60423654  0.73207588    -0.26400
O1577       O  0.56843727  0.53792082  0.78729904    -0.58300
H1578       H  0.58899091  0.58485819  0.76355026     0.16300
O1579       O  0.49339028  0.65614181  0.69802437    -0.59800
H1580       H  0.47396156  0.60997135  0.72379943     0.14700
H1581       H  0.40730288  0.01676461  0.71578156     0.46600
H1582       H  0.55668762  0.51992520  0.76483574     0.42000
H1583       H  0.47572333  0.64915990  0.66746697     0.45400
H1584       H  0.57469976  0.54280241  0.85664460     0.36900
C1585       C  0.02382150  0.51634765  0.76928138    -0.27400
C1586       C  0.04059115  0.54816250  0.78611397     0.02200
C1587       C  0.07091638  0.55549509  0.79192743     0.30300
C1588       C  0.08347942  0.53127139  0.78002315    -0.19200
C1589       C  0.06556807  0.50008766  0.76138822    -0.28600
C1590       C  0.03579520  0.99257279  0.75655980     0.44400
C1591       C  0.02611147  0.57306094  0.79769887     0.05500
O1592       O  0.08787197  0.58648859  0.80813797    -0.57100
H1593       H  0.10631483  0.53742752  0.78373369     0.18500
O1594       O  0.01784949  0.96216893  0.73888721    -0.63800
H1595       H  0.00117583  0.50987196  0.76582828     0.16900
C1596       C  0.98974964  0.58138290  0.76852404     0.29200
C1597       C  0.97627928  0.60364973  0.78088817    -0.24700
C1598       C  0.99856188  0.61786532  0.82216779    -0.24000
C1599       C  0.03497141  0.60953875  0.85137265     0.40600
C1600       C  0.04842219  0.58729951  0.83895784    -0.26400
O1601       O  0.96746188  0.56880210  0.72738213    -0.58300
H1602       H  0.94835655  0.61009192  0.75786200     0.16300
O1603       O  0.05769421  0.62306871  0.89202735    -0.59800
H1604       H  0.07629417  0.58065469  0.86196935     0.14700
H1605       H  0.02769108  0.94696657  0.76362627     0.46600
H1606       H  0.95179646  0.55220575  0.72592182     0.42000
H1607       H  0.06302375  0.60401762  0.91129225     0.45400
H1608       H  0.07463720  0.60218514  0.78313795     0.36900
C1609       C  0.31914275  0.91003494  0.82485420    -0.27400
C1610       C  0.28957762  0.90085282  0.78233541     0.02200
C1611       C  0.29471074  0.89420399  0.75349307     0.30300
C1612       C  0.32823878  0.89856939  0.76659838    -0.19200
C1613       C  0.35743842  0.90830153  0.80879762    -0.28600
C1614       C  0.35285401  0.91342119  0.83823836     0.44400
C1615       C  0.25335166  0.90124118  0.76766887     0.05500
O1616       O  0.26700742  0.88402712  0.71215035    -0.57100
H1617       H  0.33140788  0.89452064  0.74360793     0.18500
O1618       O  0.38072800  0.92362631  0.87953429    -0.63800
H1619       H  0.31592535  0.91614640  0.84740806     0.16900
C1620       C  0.24644966  0.88650348  0.79242760     0.29200
C1621       C  0.21309376  0.89068794  0.78006185    -0.24700
C1622       C  0.18599253  0.90858442  0.74252365    -0.24000
C1623       C  0.19228652  0.92206454  0.71688295     0.40600
C1624       C  0.22576591  0.91870502  0.72970398    -0.26400
O1625       O  0.27180694  0.86721539  0.82802556    -0.58300
H1626       H  0.20837719  0.87991704  0.79982705     0.16300
O1627       O  0.16628315  0.93984643  0.68010473    -0.59800
H1628       H  0.23045461  0.93090844  0.71055023     0.14700
H1629       H  0.38173943  0.94892067  0.87812542     0.46600
H1630       H  0.27875918  0.88056636  0.85285914     0.42000
H1631       H  0.16996431  0.96419632  0.68903586     0.45400
H1632       H  0.26684345  0.85865825  0.71332015     0.36900
C1633       C  0.25503859  0.94464720  0.55119877    -0.27400
C1634       C  0.25807078  0.96281937  0.52475174     0.02200
C1635       C  0.22753753  0.97804110  0.98708020     0.30300
C1636       C  0.19453556  0.97409760  0.97566488    -0.19200
C1637       C  0.19126934  0.95497119  0.00147003    -0.28600
C1638       C  0.22216997  0.94082801  0.54000817     0.44400
C1639       C  0.29271770  0.96345818  0.53549145     0.05500
O1640       O  0.22957161  0.99662928  0.96088042    -0.57100
H1641       H  0.17132805  0.98554840  0.94609017     0.20100
O1642       O  0.22055843  0.92217613  0.56653893    -0.63800
H1643       H  0.27814619  0.93244110  0.58014069     0.16900
C1644       C  0.32385449  0.97532308  0.57558659     0.29200
C1645       C  0.35669483  0.97268511  0.58630818    -0.24700
C1646       C  0.35927059  0.95771618  0.55778961    -0.24000
C1647       C  0.32786912  0.94671199  0.51718951     0.40600
C1648       C  0.29508611  0.94968557  0.50639132    -0.26400
O1649       O  0.32231653  0.98998308  0.60421569    -0.58300
H1650       H  0.38032593  0.98154012  0.61755704     0.16300
O1651       O  0.32889915  0.93210809  0.48812969    -0.59800
H1652       H  0.27149590  0.94016533  0.97551638     0.14700
H1653       H  0.22634778  0.93868306  0.58850736     0.46600
H1654       H  0.33234350  0.97265487  0.62712105     0.42000
H1655       H  0.32530696  0.95136045  0.47006823     0.45400
H1656       H  0.23706217  0.01991445  0.97362303     0.36900
C1657       C  0.07261213  0.83897041  0.56623348    -0.27400
C1658       C  0.03816619  0.82540053  0.53691248     0.02200
C1659       C  0.01592608  0.83442552  0.99321951     0.30300
C1660       C  0.02813241  0.85689795  0.97965353    -0.19200
C1661       C  0.06266812  0.87011909  0.00881215    -0.28600
C1662       C  0.08501424  0.86111418  0.55236889     0.44400
C1663       C  0.02531710  0.80185774  0.55168066     0.05500
O1664       O  0.98230634  0.82128652  0.96346718    -0.57100
H1665       H  0.01054466  0.86362952  0.94596696     0.18500
O1666       O  0.11871419  0.87412656  0.58167581    -0.63800
H1667       H  0.08977175  0.83278635  0.60003008     0.16900
C1668       C  0.04482687  0.77256400  0.57602124     0.29200
C1669       C  0.03044627  0.74913762  0.58612390    -0.24700
C1670       C  0.99675056  0.75452430  0.57238020    -0.24000
C1671       C  0.97784412  0.78442932  0.54941549     0.40600
C1672       C  0.99226967  0.80791922  0.53946785    -0.26400
O1673       O  0.07703664  0.76569007  0.58807124    -0.58300
H1674       H  0.04547691  0.72632622  0.60408271     0.16300
O1675       O  0.94529342  0.79098481  0.53647032    -0.59800
H1676       H  0.97739703  0.83084335  0.52170984     0.14700
H1677       H  0.11713704  0.89309443  0.59616686     0.46600
H1678       H  0.09486852  0.77036834  0.61932948     0.42000
H1679       H  0.95039700  0.80300256  0.56102165     0.45400
H1680       H  0.98513209  0.79929617  0.95410147     0.36900
C1681       C  0.49833356  0.81281998  0.54167464    -0.27400
C1682       C  0.52915399  0.82138227  0.54936696     0.02200
C1683       C  0.54534119  0.85338975  0.56742722     0.30300
C1684       C  0.53041272  0.87646694  0.57713767    -0.19200
C1685       C  0.49898514  0.86832106  0.56814429    -0.28600
C1686       C  0.48313822  0.83608763  0.55077941     0.44400
C1687       C  0.54161853  0.79816489  0.53394576     0.05500
O1688       O  0.57401000  0.86331116  0.57249780    -0.57100
H1689       H  0.54280056  0.90129097  0.59037163     0.18500
O1690       O  0.45279921  0.82711029  0.54242389    -0.63800
H1691       H  0.48562617  0.78822023  0.52770830     0.16900
C1692       C  0.57674226  0.78598937  0.56100555     0.29200
C1693       C  0.58718871  0.76417750  0.54450125    -0.24700
C1694       C  0.56259864  0.75379440  0.00136256    -0.24000
C1695       C  0.52742692  0.76597303  0.97456154     0.40600
C1696       C  0.51738698  0.78823101  0.99084640    -0.26400
O1697       O  0.60077679  0.79472228  0.60361638    -0.58300
H1698       H  0.61420463  0.75480230  0.56562980     0.16300
O1699       O  0.50270720  0.75692514  0.93206805    -0.59800
H1700       H  0.49040393  0.79774684  0.96961304     0.14700
H1701       H  0.46096928  0.81803549  0.56994134     0.46600
H1702       H  0.59792144  0.77712941  0.61829164     0.42000
H1703       H  0.48887366  0.73804534  0.93080341     0.45400
H1704       H  0.59423411  0.86424212  0.60394724     0.36900
C1705       C  0.74674178  0.64367219  0.54114308    -0.27400
C1706       C  0.75428228  0.65838605  0.51714122     0.02200
C1707       C  0.72627259  0.67434016  0.97756668     0.30300
C1708       C  0.69212057  0.67571304  0.96325312    -0.19200
C1709       C  0.68534252  0.66259700  0.98844694    -0.28600
C1710       C  0.71282847  0.64614318  0.52741031     0.44400
C1711       C  0.79137148  0.65818163  0.53418772     0.05500
O1712       O  0.73222481  0.68993465  0.95338465    -0.57100
H1713       H  0.67126570  0.68871024  0.93338404     0.18500
O1714       O  0.70684141  0.63276802  0.55251122    -0.63800
H1715       H  0.76733003  0.63055875  0.57099073     0.16900
C1716       C  0.82057933  0.66695501  0.57733979     0.29200
C1717       C  0.85493817  0.66789723  0.59218160    -0.24700
C1718       C  0.86077943  0.66184075  0.56417866    -0.24000
C1719       C  0.83188109  0.65290660  0.52128334     0.40600
C1720       C  0.79773612  0.65046942  0.50685063    -0.26400
O1721       O  0.81576382  0.67624129  0.60487579    -0.58300
H1722       H  0.87683570  0.67531467  0.62513070     0.16300
O1723       O  0.83656375  0.64697239  0.99293842    -0.59800
H1724       H  0.77600255  0.64301147  0.97385267     0.14700
H1725       H  0.69712869  0.60950466  0.54084755     0.46600
H1726       H  0.80938669  0.70088880  0.59909798     0.42000
H1727       H  0.84410305  0.62256487  0.49752768     0.45400
H1728       H  0.74199125  0.71284318  0.96656575     0.36900
loop_ 
_geom_bond_atom_site_label_1 
_geom_bond_atom_site_label_2 
_geom_bond_distance 
_geom_bond_site_symmetry_2 
_ccdc_geom_bond_type 
In1           O3   2.218       .  S
In1           O4   2.265       .  S
In1          O12   2.251       .  S
In1           O9   2.273       .  S
In1          O10   2.192       .  S
In1         O438   2.235       .  S
In1         O440   2.254       .  S
In1         O445   2.232       .  S
C2           O10   1.257       .  A
C2          O440   1.266       .  A
C2          C398   1.470       .  S
O3           C11   1.261       .  A
O4           C11   1.270       .  A
C5           O12   1.266       .  A
C5          O438   1.263       .  A
C5          C413   1.475       .  S
O6         In433   2.235   1_554  S
O6          C437   1.263   1_554  A
C7            O9   1.265       .  A
C7          O445   1.259       .  A
C7           C47   1.495       .  S
O8         In433   2.254   1_554  S
O8          C434   1.266   1_554  A
C11         C169   1.490       .  S
O13        In433   2.232       .  S
O13         C439   1.259       .  A
In14         O16   2.208       .  S
In14         O17   2.266       .  S
In14         O25   2.251       .  S
In14         O19   2.233       .  S
In14         O21   2.238       .  S
In14         O22   2.278       .  S
In14         O23   2.205   1_655  S
In14         O26   2.219       .  S
C15          O21   1.267       .  A
C15          O23   1.261   1_655  A
C15         C374   1.468       .  S
O16          C24   1.261       .  A
O17          C24   1.272       .  A
C18          O25   1.266       .  A
C18          O19   1.263       .  A
C18         C422   1.478       .  S
C20          O22   1.270       .  A
C20          O26   1.261       .  A
C20          C82   1.496       .  S
C24         C203   1.486   1_655  S
N27          C32   1.358       .  A
N27          C31   1.359       .  A
N27          H59   1.036       .  S
N28          C35   1.356       .  A
N28          C36   1.353       .  A
N29         C898   1.356   1_545  A
N29         C465   1.358   1_544  A
N29          H60   1.039   1_554  S
N30          C37   1.353       .  A
N30          C38   1.356       .  A
C31          C39   1.393       .  A
C31         C479   1.431   1_554  A
C32          C48   1.418       .  A
C32          C40   1.383       .  A
C33         N461   1.358   1_565  A
C33          C50   1.415   1_565  A
C33         C905   1.384       .  A
C34         N893   1.356       .  A
C34          C42   1.388       .  A
C34         C913   1.425       .  A
C35          C47   1.417       .  A
C35          C43   1.385       .  A
C36          C50   1.421       .  A
C36          C44   1.387       .  A
C37          C45   1.388       .  A
C37          C48   1.420       .  A
C38          C46   1.385       .  A
C38          C49   1.416       .  A
C39          C40   1.371       .  A
C39          H51   1.079       .  S
C40          H52   1.083       .  S
C41         C897   1.384       .  A
C41         C474   1.371       .  A
C41          H53   1.081       .  S
C42         C473   1.371   1_554  A
C42          H54   1.077       .  S
C43          C44   1.371       .  A
C43          H55   1.081       .  S
C44          H56   1.078       .  S
C45          C46   1.374       .  A
C45          H57   1.081       .  S
C46          H58   1.082       .  S
C47         C463   1.431       .  A
C48         C221   1.486       .  S
C49         C969   1.498   1_545  S
C49         C898   1.425   1_545  A
C50        C1008   1.490   1_545  S
N61          C66   1.356       .  A
N61         C497   1.358   1_554  A
N61          H93   1.036       .  S
N62          C69   1.355       .  A
N62          C70   1.358       .  A
N63          C68   1.358   1_545  A
N63         C931   1.360   1_545  A
N63          H94   1.032       .  S
N64          C71   1.356       .  A
N64          C72   1.354       .  A
C65         N493   1.358       .  A
C65          C73   1.384       .  A
C65          C81   1.416       .  A
C66          C82   1.428       .  A
C66          C74   1.390       .  A
C67         N927   1.360       .  A
C67          C75   1.393       .  A
C67        C1380   1.435   1_554  A
C68          C83   1.422       .  A
C68         C940   1.384       .  A
C69          C81   1.424   1_455  A
C69          C77   1.386       .  A
C70          C84   1.422       .  A
C70          C78   1.385       .  A
C71          C79   1.385       .  A
C71          C82   1.417   1_455  A
C72          C80   1.389       .  A
C72          C83   1.422   1_545  A
C73         C506   1.370       .  A
C73          H85   1.081       .  S
C74         C505   1.370   1_554  A
C74          H86   1.077       .  S
C75          C76   1.372       .  A
C75          H87   1.078       .  S
C76         C932   1.384       .  A
C76          H88   1.082       .  S
C77          C78   1.371       .  A
C77          H89   1.077       .  S
C78          H90   1.081       .  S
C79          C80   1.373       .  A
C79          H91   1.082   1_455  S
C80          H92   1.082       .  S
C81         C234   1.492       .  S
C83         C995   1.487       .  S
C84         C982   1.501   1_545  S
C84        C1363   1.435   1_545  A
In95         O97   2.222       .  S
In95         O98   2.280       .  S
In95        O106   2.254       .  S
In95        O100   2.236       .  S
In95        O102   2.229       .  S
In95        O103   2.269       .  S
In95        O104   2.205       .  S
In95        O107   2.210       .  S
C96         O102   1.269       .  A
C96         O104   1.263       .  A
C96         C389   1.465       .  S
O97         C105   1.262       .  A
O98         C105   1.271       .  A
C99         O106   1.266       .  A
C99         O100   1.264       .  A
C99         C350   1.489       .  S
C101        O103   1.272       .  A
C101        O107   1.259       .  A
C101        C167   1.483       .  S
C105        C913   1.498       .  S
In108       O111   2.278       .  S
In108       O119   2.260       .  S
In108       O113   2.234       .  S
In108       O115   2.236       .  S
In108       O116   2.280       .  S
In108       O117   2.198       .  S
In108       O120   2.228       .  S
In108       O542   2.240       .  S
C109        O115   1.267       .  A
C109        O117   1.260       .  A
C109        C365   1.465       .  S
O110       In540   2.240   1_554  S
O110        C550   1.259   1_554  A
O111        C118   1.267       .  A
C112        O119   1.267       .  A
C112        O113   1.263       .  A
C112        C341   1.490       .  S
C114        O116   1.271       .  A
C114        O120   1.259       .  A
C114        C201   1.490       .  S
C118        O542   1.259       .  A
C118        C948   1.501       .  S
In121       O123   2.218       .  S
In121       O124   2.273       .  S
In121       O132   2.245       .  S
In121       O126   2.237       .  S
In121       O128   2.252       .  S
In121       O129   2.267       .  S
In121       O130   2.195       .  S
In121       O133   2.234       .  S
C122        O128   1.268       .  A
C122        O130   1.259       .  A
C122       C1157   1.468       .  S
O123        C131   1.260       .  A
O124        C131   1.271       .  A
C125        O132   1.265       .  A
C125        O126   1.264       .  A
C125        C326   1.473       .  S
C127        O129   1.268       .  A
C127        O133   1.260       .  A
C127        C202   1.495       .  S
C131        C947   1.487       .  S
In134       O136   2.221       .  S
In134       O137   2.265       .  S
In134       O145   2.245       .  S
In134       O139   2.230       .  S
In134       O141   2.252       .  S
In134       O142   2.274       .  S
In134       O143   2.194       .  S
In134       O146   2.230       .  S
C135        O141   1.266       .  A
C135        O143   1.259       .  A
C135       C1133   1.468       .  S
O136        C144   1.262       .  A
O137        C144   1.271       .  A
C138        O145   1.266       .  A
C138        O139   1.264       .  A
C138        C317   1.476       .  S
C140        O142   1.267       .  A
C140        O146   1.259       .  A
C140        C168   1.496       .  S
C144        C914   1.490       .  S
N147        C152   1.358       .  A
N147        C151   1.356       .  A
N147        H179   1.033       .  S
N148        C155   1.353       .  A
N148        C156   1.356       .  A
N149        C154   1.358       .  A
N149        C153   1.358       .  A
N149        H180   1.036       .  S
N150        C157   1.357       .  A
N150        C158   1.354       .  A
C151        C159   1.384       .  A
C151        C167   1.418       .  A
C152        C168   1.431       .  A
C152        C160   1.393       .  A
C153        C161   1.388       .  A
C153        C170   1.428       .  A
C154        C169   1.419       .  A
C154        C162   1.385       .  A
C155        C167   1.422       .  A
C155        C163   1.388       .  A
C156        C170   1.417       .  A
C156        C164   1.385       .  A
C157        C165   1.385       .  A
C157        C168   1.419       .  A
C158        C166   1.389       .  A
C158        C169   1.424       .  A
C159        C160   1.370       .  A
C159        H171   1.083       .  S
C160        H172   1.079       .  S
C161        C162   1.370       .  A
C161        H173   1.076       .  S
C162        H174   1.081       .  S
C163        C164   1.372       .  A
C163        H175   1.080       .  S
C164        H176   1.082       .  S
C165        C166   1.371       .  A
C165        H177   1.081       .  S
C166        H178   1.079       .  S
C170        C225   1.498       .  S
N181        C186   1.359       .  A
N181        C185   1.357       .  A
N181        H213   1.037       .  S
N182        C189   1.354       .  A
N182        C190   1.357       .  A
N183        C188   1.357       .  A
N183        C187   1.356       .  A
N183        H214   1.038       .  S
N184        C191   1.356       .  A
N184        C192   1.353       .  A
C185        C193   1.384       .  A
C185        C201   1.419       .  A
C186        C202   1.429       .  A
C186        C194   1.392       .  A
C187        C195   1.389       .  A
C187        C204   1.426       .  A
C188        C203   1.413   1_655  A
C188        C196   1.383       .  A
C189        C201   1.422       .  A
C189        C197   1.387       .  A
C190        C204   1.418   1_455  A
C190        C198   1.385   1_455  A
C191        C199   1.385       .  A
C191        C202   1.415       .  A
C192        C200   1.387       .  A
C192        C203   1.420       .  A
C193        C194   1.371       .  A
C193        H205   1.082       .  S
C194        H206   1.079       .  S
C195        C196   1.371       .  A
C195        H207   1.074       .  S
C196        H208   1.081       .  S
C197        C198   1.375   1_455  A
C197        H209   1.081       .  S
C198        H210   1.082       .  S
C199        C200   1.368       .  A
C199        H211   1.081       .  S
C200        H212   1.077       .  S
C204        C238   1.499       .  S
In215       O217   2.230       .  S
In215       O218   2.275       .  S
In215       O226   2.251       .  S
In215       O220   2.235       .  S
In215       O222   2.234       .  S
In215       O223   2.275       .  S
In215       O224   2.201       .  S
In215       O227   2.213       .  S
C216        O222   1.269       .  A
C216        O224   1.261       .  A
C216        C278   1.468       .  S
O217        C225   1.262       .  A
O218        C225   1.270       .  A
C219        O226   1.266       .  A
C219        O220   1.264       .  A
C219        C245   1.487       .  S
C221        O223   1.272       .  A
C221        O227   1.259       .  A
In228       O230   2.227       .  S
In228       O231   2.282       .  S
In228       O239   2.257       .  S
In228       O233   2.229       .  S
In228       O235   2.233       .  S
In228       O236   2.273       .  S
In228       O237   2.208   1_655  S
In228       O240   2.219       .  S
C229        O235   1.268       .  A
C229        O237   1.262   1_655  A
C229        C302   1.472       .  S
O230        C238   1.262       .  A
O231        C238   1.271       .  A
C232        O239   1.267       .  A
C232        O233   1.264       .  A
C232        C254   1.488       .  S
C234        O236   1.272       .  A
C234        O240   1.260       .  A
C241        C242   1.406       .  A
C241        C246   1.404       .  A
C241        H251   1.083       .  S
C242        C247   1.493       .  S
C242        C243   1.411       .  A
C243        C244   1.401       .  A
C243        O248   1.372       .  S
C244        C245   1.406       .  A
C244        H249   1.083       .  S
C245        C246   1.412       .  A
C246        O250   1.372       .  S
C247        C252   1.410       .  A
C247        C256   1.406       .  A
O248        H264   0.992       .  S
O250        H261   0.992       .  S
C252        C253   1.402       .  A
C252        O257   1.372       .  S
C253        C254   1.406       .  A
C253        H258   1.083       .  S
C254        C255   1.412       .  A
C255        C256   1.405       .  A
C255        O259   1.372       .  S
C256        H260   1.083       .  S
O257        H262   0.992       .  S
O259        H263   0.992       .  S
C265        C266   1.404       .  A
C265        C270   1.400       .  A
C265        H275   1.084       .  S
C266        C271   1.471       .  S
C266        C267   1.404       .  A
C267        C268   1.392       .  A
C267        O272   1.374       .  S
C268        C269   1.404       .  A
C268        H273   1.084       .  S
C269        C999   1.468   1_545  S
C269        C270   1.407       .  A
C270       O1138   1.371   1_545  S
C271        C276   1.408       .  A
C271        C280   1.399       .  A
O272        H288   0.992       .  S
O274       C1134   1.371       .  S
O274        H285   0.991       .  S
C276        C277   1.395       .  A
C276        O281   1.372       .  S
C277        C278   1.401       .  A
C277        H282   1.084       .  S
C278        C279   1.411       .  A
C279        C280   1.395       .  A
C279        O283   1.372       .  S
C280        H284   1.084       .  S
O281        H286   0.992       .  S
O283        H287   0.991       .  S
C289        C290   1.400       .  A
C289       C1158   1.391   1_545  A
C289        H299   1.083       .  S
C290        C295   1.477       .  S
C290        C291   1.411       .  A
C291        C292   1.401       .  A
C291        O296   1.372       .  S
C292        C293   1.402   1_545  A
C292        H297   1.084       .  S
C293        C986   1.468       .  S
C293       C1158   1.409       .  A
C294       C1153   1.391       .  A
C294       C1157   1.409       .  A
C294        O298   1.372       .  S
C295        C300   1.410   1_455  A
C295        C304   1.401       .  A
O296        H312   0.992       .  S
O298        H309   0.991       .  S
C300        C301   1.397       .  A
C300        O305   1.373       .  S
C301        C302   1.401       .  A
C301        H306   1.084       .  S
C302        C303   1.412   1_655  A
C303        C304   1.397       .  A
C303        O307   1.372       .  S
C304        H308   1.084       .  S
O305        H310   0.992       .  S
O307        H311   0.992       .  S
C313        C314   1.408       .  A
C313        C318   1.401       .  A
C313        H323   1.082       .  S
C314        C319   1.494       .  S
C314        C315   1.413       .  A
C315        C316   1.402       .  A
C315        O320   1.371       .  S
C316        C317   1.402       .  A
C316        H321   1.084       .  S
C317        C318   1.407       .  A
C318        O322   1.372       .  S
C319        C324   1.413       .  A
C319        C328   1.408       .  A
O320        H336   0.991       .  S
O322        H333   0.992       .  S
C324        C325   1.405       .  A
C324        O329   1.373       .  S
C325        C326   1.402       .  A
C325        H330   1.084       .  S
C326        C327   1.405       .  A
C327        C328   1.400       .  A
C327        O331   1.372       .  S
C328        H332   1.083       .  S
O329        H334   0.992       .  S
O331        H335   0.992       .  S
C337        C338   1.403       .  A
C337        C342   1.402       .  A
C337        H347   1.083       .  S
C338        C343   1.490       .  S
C338        C771   1.410   1_554  A
C339        C340   1.405       .  A
C339        C770   1.410       .  A
C339        O344   1.371       .  S
C340        C341   1.407       .  A
C340        H345   1.083       .  S
C341        C774   1.414       .  A
C342        C773   1.414       .  A
C342        O346   1.372       .  S
C343        C348   1.410       .  A
C343        C352   1.403       .  A
O344        H360   0.992       .  S
O346        H357   0.992       .  S
C348        C349   1.405       .  A
C348        O353   1.372       .  S
C349        C350   1.407       .  A
C349        H354   1.084       .  S
C350        C351   1.413       .  A
C351        C352   1.402       .  A
C351        O355   1.371   1_554  S
C352        H788   1.084   1_554  S
O353        H358   0.992       .  S
O355        H359   0.992       .  S
H356        C784   1.084       .  S
C361        C362   1.405       .  A
C361        C366   1.398       .  A
C361        H371   1.083       .  S
C362        C367   1.475       .  S
C362        C795   1.408   1_554  A
C363        C364   1.390       .  A
C363        C794   1.408       .  A
C363        O368   1.372   1_455  S
C364        C365   1.402       .  A
C364        H369   1.083       .  S
C365        C798   1.406       .  A
C366        C797   1.406       .  A
C366        O370   1.372       .  S
C367        C372   1.407       .  A
C367        C376   1.404   1_455  A
O368        H384   0.992       .  S
O370        H381   0.992       .  S
C372        C373   1.395       .  A
C372        O377   1.373       .  S
C373        C374   1.404   1_455  A
C373        H378   1.084       .  S
C374        C375   1.406       .  A
C375        C376   1.394       .  A
C375        O379   1.371       .  S
C376        H380   1.084       .  S
O377        H382   0.992       .  S
O379        H383   0.992       .  S
C385        C386   1.405       .  A
C385        C390   1.395       .  A
C385        H395   1.084       .  S
C386        C391   1.473       .  S
C386        C387   1.405       .  A
C387        C388   1.396       .  A
C387        O392   1.372       .  S
C388        C389   1.403       .  A
C388        H393   1.084       .  S
C389        C390   1.405       .  A
C390        O394   1.372       .  S
C391        C396   1.409       .  A
C391        C832   1.398   1_554  A
O392        H408   0.992       .  S
O394        H405   0.992       .  S
C396        C397   1.400       .  A
C396        O401   1.371       .  S
C397        C830   1.404       .  A
C397        H402   1.084       .  S
C398        C399   1.411       .  A
C398        C829   1.404       .  A
C399        C400   1.390       .  A
C399        O403   1.372       .  S
C400        C823   1.398       .  A
C400        H404   1.084       .  S
O401        H406   0.992       .  S
O403        H407   0.992       .  S
C409        C410   1.409       .  A
C409        C414   1.402       .  A
C409        H419   1.083       .  S
C410        C415   1.498       .  S
C410        C843   1.416   1_554  A
C411        C412   1.402       .  A
C411        C842   1.416       .  A
C411        O416   1.372       .  S
C412        C413   1.401       .  A
C412        H417   1.084       .  S
C413        C846   1.406       .  A
C414        C845   1.406   1_554  A
C414        O418   1.372       .  S
C415        C420   1.415       .  A
C415        C424   1.408       .  A
O416        H432   0.992       .  S
O418        H429   0.992       .  S
C420        C421   1.403       .  A
C420        O425   1.372       .  S
C421        C422   1.402       .  A
C421        H426   1.084       .  S
C422        C423   1.407       .  A
C423        C424   1.402       .  A
C423        O859   1.372   1_554  S
C424        H860   1.083   1_554  S
O425        H430   0.992       .  S
O427        C855   1.372       .  S
O427        H863   0.991       .  S
H428        C856   1.083       .  S
H431        O859   0.991       .  S
In433       O435   2.218       .  S
In433       O436   2.266       .  S
In433       O444   2.251       .  S
In433       O441   2.273       .  S
In433       O442   2.193       .  S
C434        O442   1.257       .  A
C434        C830   1.470   1_556  S
O435        C443   1.261       .  A
O436        C443   1.270       .  A
C437        O444   1.266       .  A
C437        C845   1.475       .  S
C439        O441   1.265       .  A
C439        C479   1.495       .  S
C443        C601   1.490       .  S
In446       O448   2.208       .  S
In446       O449   2.266       .  S
In446       O457   2.251       .  S
In446       O451   2.233       .  S
In446       O453   2.238       .  S
In446       O454   2.278       .  S
In446       O455   2.205   1_655  S
In446       O458   2.219       .  S
C447        O453   1.267       .  A
C447        O455   1.261   1_655  A
C447        C806   1.468       .  S
O448        C456   1.261       .  A
O449        C456   1.272       .  A
C450        O457   1.266       .  A
C450        O451   1.263       .  A
C450        C854   1.478       .  S
C452        O454   1.270       .  A
C452        O458   1.261       .  A
C452        C514   1.496       .  S
C456        C635   1.486   1_655  S
N459        C464   1.358       .  A
N459        C463   1.359       .  A
N459        H491   1.036       .  S
N460        C467   1.356       .  A
N460        C468   1.353       .  A
N461       C1330   1.356   1_545  A
N461        H492   1.039       .  S
N462        C469   1.353       .  A
N462        C470   1.356       .  A
C463        C471   1.393       .  A
C464        C480   1.418       .  A
C464        C472   1.383       .  A
C465       C1337   1.384       .  A
C465        C482   1.415   1_565  A
C466       N1325   1.356       .  A
C466       C1345   1.425       .  A
C466        C474   1.388       .  A
C467        C479   1.417       .  A
C467        C475   1.385       .  A
C468        C482   1.421       .  A
C468        C476   1.387       .  A
C469        C477   1.388       .  A
C469        C480   1.420       .  A
C470        C478   1.385       .  A
C470        C481   1.416       .  A
C471        C472   1.371       .  A
C471        H483   1.079       .  S
C472        H484   1.083       .  S
C473       C1329   1.384       .  A
C473        H485   1.081       .  S
C474        H486   1.077       .  S
C475        C476   1.371       .  A
C475        H487   1.081       .  S
C476        H488   1.078       .  S
C477        C478   1.374       .  A
C477        H489   1.081       .  S
C478        H490   1.082       .  S
C480        C653   1.486       .  S
C481       C1401   1.498   1_545  S
C481       C1330   1.425   1_545  A
C482       C1440   1.490   1_545  S
N493        C498   1.356       .  A
N493        H525   1.036       .  S
N494        C501   1.355       .  A
N494        C502   1.358       .  A
N495        C500   1.358   1_545  A
N495       C1363   1.360   1_545  A
N495        H526   1.032       .  S
N496        C503   1.356       .  A
N496        C504   1.354       .  A
C497        C505   1.384       .  A
C497        C513   1.416       .  A
C498        C514   1.428       .  A
C498        C506   1.389       .  A
C499       N1359   1.360       .  A
C499        C507   1.393       .  A
C499        C948   1.435       .  A
C500        C515   1.422       .  A
C500       C1372   1.384       .  A
C501        C513   1.424   1_455  A
C501        C509   1.386       .  A
C502        C516   1.422       .  A
C502        C510   1.385       .  A
C503        C511   1.385       .  A
C503        C514   1.417   1_455  A
C504        C512   1.389       .  A
C504        C515   1.422   1_545  A
C505        H517   1.081       .  S
C506        H518   1.077       .  S
C507        C508   1.372       .  A
C507        H519   1.078       .  S
C508       C1364   1.384       .  A
C508        H520   1.082       .  S
C509        C510   1.371       .  A
C509        H521   1.077       .  S
C510        H522   1.081       .  S
C511        C512   1.373       .  A
C511        H523   1.082   1_455  S
C512        H524   1.082       .  S
C513        C666   1.492       .  S
C515       C1427   1.487       .  S
C516       C1414   1.501   1_545  S
C516        C931   1.435   1_546  A
In527       O529   2.222       .  S
In527       O530   2.279       .  S
In527       O538   2.254       .  S
In527       O532   2.237       .  S
In527       O534   2.229       .  S
In527       O535   2.268       .  S
In527       O536   2.206       .  S
In527       O539   2.210       .  S
C528        O534   1.269       .  A
C528        O536   1.263       .  A
C528        C821   1.466       .  S
O529        C537   1.262       .  A
O530        C537   1.271       .  A
C531        O538   1.266       .  A
C531        O532   1.264       .  A
C531        C782   1.489       .  S
C533        O535   1.272       .  A
C533        O539   1.259       .  A
C533        C599   1.483       .  S
C537       C1345   1.498       .  S
In540       O543   2.278       .  S
In540       O551   2.259       .  S
In540       O545   2.234   1_556  S
In540       O547   2.237   1_556  S
In540       O548   2.281       .  S
In540       O549   2.198       .  S
In540       O552   2.228       .  S
C541        O547   1.267   1_556  A
C541        O549   1.260       .  A
C541        C797   1.465   1_556  S
O543        C550   1.267       .  A
C544        O551   1.267       .  A
C544        O545   1.263   1_556  A
C544        C773   1.490   1_556  S
C546        O548   1.271       .  A
C546        O552   1.259       .  A
C546        C633   1.490       .  S
C550       C1380   1.501       .  S
In553       O555   2.218       .  S
In553       O556   2.273       .  S
In553       O564   2.246       .  S
In553       O558   2.237       .  S
In553       O560   2.252       .  S
In553       O561   2.268       .  S
In553       O562   2.195       .  S
In553       O565   2.234       .  S
C554        O560   1.268       .  A
C554        O562   1.259       .  A
C554       C1589   1.468       .  S
O555        C563   1.260       .  A
O556        C563   1.271       .  A
C557        O564   1.265       .  A
C557        O558   1.264       .  A
C557        C758   1.474       .  S
C559        O561   1.268       .  A
C559        O565   1.260       .  A
C559        C634   1.495       .  S
C563       C1379   1.487       .  S
In566       O568   2.220       .  S
In566       O569   2.264       .  S
In566       O577   2.245       .  S
In566       O571   2.229       .  S
In566       O573   2.252       .  S
In566       O574   2.274       .  S
In566       O575   2.194       .  S
In566       O578   2.231       .  S
C567        O573   1.266       .  A
C567        O575   1.259       .  A
C567       C1565   1.468       .  S
O568        C576   1.262       .  A
O569        C576   1.271       .  A
C570        O577   1.266       .  A
C570        O571   1.264       .  A
C570        C749   1.476       .  S
C572        O574   1.267       .  A
C572        O578   1.259       .  A
C572        C600   1.496       .  S
C576       C1346   1.490       .  S
N579        C584   1.358       .  A
N579        C583   1.356       .  A
N579        H611   1.033       .  S
N580        C587   1.353       .  A
N580        C588   1.356       .  A
N581        C586   1.358       .  A
N581        C585   1.358       .  A
N581        H612   1.036       .  S
N582        C589   1.357       .  A
N582        C590   1.354       .  A
C583        C591   1.384       .  A
C583        C599   1.418       .  A
C584        C600   1.430       .  A
C584        C592   1.393       .  A
C585        C593   1.388       .  A
C585        C602   1.428       .  A
C586        C601   1.419       .  A
C586        C594   1.385       .  A
C587        C599   1.422       .  A
C587        C595   1.388       .  A
C588        C602   1.417       .  A
C588        C596   1.385       .  A
C589        C597   1.384       .  A
C589        C600   1.419       .  A
C590        C598   1.389       .  A
C590        C601   1.424       .  A
C591        C592   1.370       .  A
C591        H603   1.083       .  S
C592        H604   1.079       .  S
C593        C594   1.370       .  A
C593        H605   1.076       .  S
C594        H606   1.081       .  S
C595        C596   1.372       .  A
C595        H607   1.080       .  S
C596        H608   1.082       .  S
C597        C598   1.371       .  A
C597        H609   1.081       .  S
C598        H610   1.079       .  S
C602        C657   1.498       .  S
N613        C618   1.359       .  A
N613        C617   1.357       .  A
N613        H645   1.037       .  S
N614        C621   1.354       .  A
N614        C622   1.357       .  A
N615        C620   1.357       .  A
N615        C619   1.356       .  A
N615        H646   1.038       .  S
N616        C623   1.356       .  A
N616        C624   1.353       .  A
C617        C625   1.384       .  A
C617        C633   1.419       .  A
C618        C634   1.429       .  A
C618        C626   1.392       .  A
C619        C627   1.389       .  A
C619        C636   1.427       .  A
C620        C635   1.413   1_655  A
C620        C628   1.383       .  A
C621        C633   1.422       .  A
C621        C629   1.387       .  A
C622        C636   1.419   1_455  A
C622        C630   1.385   1_455  A
C623        C631   1.385       .  A
C623        C634   1.416       .  A
C624        C632   1.387       .  A
C624        C635   1.420       .  A
C625        C626   1.371       .  A
C625        H637   1.082       .  S
C626        H638   1.079       .  S
C627        C628   1.371       .  A
C627        H639   1.075       .  S
C628        H640   1.081       .  S
C629        C630   1.375   1_455  A
C629        H641   1.081       .  S
C630        H642   1.082       .  S
C631        C632   1.368       .  A
C631        H643   1.081       .  S
C632        H644   1.077       .  S
C636        C670   1.499       .  S
In647       O649   2.230       .  S
In647       O650   2.275       .  S
In647       O658   2.251       .  S
In647       O652   2.235       .  S
In647       O654   2.233       .  S
In647       O655   2.274       .  S
In647       O656   2.201       .  S
In647       O659   2.213       .  S
C648        O654   1.269       .  A
C648        O656   1.261       .  A
C648        C710   1.468       .  S
O649        C657   1.262       .  A
O650        C657   1.270       .  A
C651        O658   1.266       .  A
C651        O652   1.264       .  A
C651        C677   1.487       .  S
C653        O655   1.272       .  A
C653        O659   1.259       .  A
In660       O662   2.228       .  S
In660       O663   2.282       .  S
In660       O671   2.257       .  S
In660       O665   2.230       .  S
In660       O667   2.233       .  S
In660       O668   2.274       .  S
In660       O669   2.208   1_655  S
In660       O672   2.219       .  S
C661        O667   1.268       .  A
C661        O669   1.262   1_655  A
C661        C734   1.472       .  S
O662        C670   1.262       .  A
O663        C670   1.271       .  A
C664        O671   1.267       .  A
C664        O665   1.264       .  A
C664        C686   1.488       .  S
C666        O668   1.272       .  A
C666        O672   1.260       .  A
C673        C674   1.406       .  A
C673        C678   1.404       .  A
C673        H683   1.083       .  S
C674        C679   1.493       .  S
C674        C675   1.410       .  A
C675        C676   1.401       .  A
C675        O680   1.372       .  S
C676        C677   1.406       .  A
C676        H681   1.083       .  S
C677        C678   1.412       .  A
C678        O682   1.372       .  S
C679        C684   1.410       .  A
C679        C688   1.406       .  A
O680        H696   0.992       .  S
O682        H693   0.992       .  S
C684        C685   1.402       .  A
C684        O689   1.372       .  S
C685        C686   1.406       .  A
C685        H690   1.083       .  S
C686        C687   1.412       .  A
C687        C688   1.405       .  A
C687        O691   1.372       .  S
C688        H692   1.083       .  S
O689        H694   0.992       .  S
O691        H695   0.992       .  S
C697        C698   1.404       .  A
C697        C702   1.400       .  A
C697        H707   1.084       .  S
C698        C703   1.470       .  S
C698        C699   1.404       .  A
C699        C700   1.392       .  A
C699        O704   1.374       .  S
C700        C701   1.404       .  A
C700        H705   1.084       .  S
C701       C1431   1.468   1_545  S
C701        C702   1.407       .  A
C702       O1570   1.371   1_545  S
C703        C708   1.408       .  A
C703        C712   1.399       .  A
O704        H720   0.992       .  S
O706       C1566   1.371       .  S
O706        H717   0.991       .  S
C708        C709   1.395       .  A
C708        O713   1.372       .  S
C709        C710   1.401       .  A
C709        H714   1.084       .  S
C710        C711   1.412       .  A
C711        C712   1.395       .  A
C711        O715   1.372       .  S
C712        H716   1.084       .  S
O713        H718   0.992       .  S
O715        H719   0.991       .  S
C721        C722   1.400       .  A
C721       C1590   1.391   1_545  A
C721        H731   1.083       .  S
C722        C727   1.477       .  S
C722        C723   1.411       .  A
C723        C724   1.401       .  A
C723        O728   1.372       .  S
C724        C725   1.402       .  A
C724        H729   1.084       .  S
C725       C1418   1.468   1_545  S
C725       C1590   1.409   1_545  A
C726       C1585   1.391       .  A
C726       C1589   1.409       .  A
C726        O730   1.372       .  S
C727        C732   1.410   1_455  A
C727        C736   1.401       .  A
O728        H744   0.992       .  S
O730        H741   0.991       .  S
C732        C733   1.397       .  A
C732        O737   1.373       .  S
C733        C734   1.401       .  A
C733        H738   1.084       .  S
C734        C735   1.412   1_655  A
C735        C736   1.397       .  A
C735        O739   1.372       .  S
C736        H740   1.084       .  S
O737        H742   0.992       .  S
O739        H743   0.992       .  S
C745        C746   1.408       .  A
C745        C750   1.401       .  A
C745        H755   1.082       .  S
C746        C751   1.495       .  S
C746        C747   1.413       .  A
C747        C748   1.401       .  A
C747        O752   1.371       .  S
C748        C749   1.402       .  A
C748        H753   1.084       .  S
C749        C750   1.407       .  A
C750        O754   1.372       .  S
C751        C756   1.413       .  A
C751        C760   1.408       .  A
O752        H768   0.991       .  S
O754        H765   0.992       .  S
C756        C757   1.406       .  A
C756        O761   1.373       .  S
C757        C758   1.402       .  A
C757        H762   1.084       .  S
C758        C759   1.405       .  A
C759        C760   1.400       .  A
C759        O763   1.372       .  S
C760        H764   1.083       .  S
O761        H766   0.992       .  S
O763        H767   0.992       .  S
C769        C770   1.403       .  A
C769        C774   1.402       .  A
C769        H779   1.083       .  S
C770        C775   1.490       .  S
C771        C772   1.405       .  A
C771        O776   1.371       .  S
C772        C773   1.407   1_556  A
C772        H777   1.083       .  S
C774        O778   1.372       .  S
C775        C780   1.410       .  A
C775        C784   1.403       .  A
O776        H792   0.992       .  S
O778        H789   0.992       .  S
C780        C781   1.406       .  A
C780        O785   1.372       .  S
C781        C782   1.407       .  A
C781        H786   1.084       .  S
C782        C783   1.413       .  A
C783        C784   1.402       .  A
C783        O787   1.371       .  S
O785        H790   0.992       .  S
O787        H791   0.992       .  S
C793        C794   1.405       .  A
C793        C798   1.398       .  A
C793        H803   1.083       .  S
C794        C799   1.475       .  S
C795        C796   1.390       .  A
C795        O800   1.372   1_455  S
C796        C797   1.402   1_556  A
C796        H801   1.083       .  S
C798        O802   1.372       .  S
C799        C804   1.407       .  A
C799        C808   1.404   1_455  A
O800        H816   0.992       .  S
O802        H813   0.992       .  S
C804        C805   1.395       .  A
C804        O809   1.373       .  S
C805        C806   1.404   1_455  A
C805        H810   1.084       .  S
C806        C807   1.406       .  A
C807        C808   1.394       .  A
C807        O811   1.371       .  S
C808        H812   1.084       .  S
O809        H814   0.992       .  S
O811        H815   0.992       .  S
C817        C818   1.405       .  A
C817        C822   1.395       .  A
C817        H827   1.084       .  S
C818        C823   1.473       .  S
C818        C819   1.406       .  A
C819        C820   1.396       .  A
C819        O824   1.372       .  S
C820        C821   1.403       .  A
C820        H825   1.084       .  S
C821        C822   1.405       .  A
C822        O826   1.372       .  S
C823        C828   1.409       .  A
O824        H840   0.992       .  S
O826        H837   0.992       .  S
C828        C829   1.400       .  A
C828        O833   1.371       .  S
C829        H834   1.084       .  S
C830        C831   1.411   1_554  A
C831        C832   1.390       .  A
C831        O835   1.372       .  S
C832        H836   1.084       .  S
O833        H838   0.992       .  S
O835        H839   0.992       .  S
C841        C842   1.409       .  A
C841        C846   1.402       .  A
C841        H851   1.083       .  S
C842        C847   1.498       .  S
C843        C844   1.402       .  A
C843        O848   1.372       .  S
C844        C845   1.401       .  A
C844        H849   1.084       .  S
C846        O850   1.372       .  S
C847        C852   1.415       .  A
C847        C856   1.408       .  A
O848        H864   0.992       .  S
O850        H861   0.992       .  S
C852        C853   1.403       .  A
C852        O857   1.372       .  S
C853        C854   1.402       .  A
C853        H858   1.084       .  S
C854        C855   1.407       .  A
C855        C856   1.402       .  A
O857        H862   0.992       .  S
In865       O867   2.218       .  S
In865       O868   2.265       .  S
In865       O876   2.251       .  S
In865      O1302   2.235       .  S
In865      O1304   2.254       .  S
In865       O873   2.273       .  S
In865       O874   2.192       .  S
In865      O1309   2.232       .  S
C866       O1304   1.266       .  A
C866        O874   1.257       .  A
C866       C1262   1.470       .  S
O867        C875   1.261       .  A
O868        C875   1.270       .  A
C869        O876   1.266       .  A
C869       O1302   1.263       .  A
C869       C1277   1.475       .  S
O870      In1297   2.235   1_554  S
O870       C1301   1.263   1_554  A
C871        O873   1.265       .  A
C871       O1309   1.259       .  A
C871        C911   1.495       .  S
O872      In1297   2.254   1_554  S
O872       C1298   1.266   1_554  A
C875       C1033   1.490       .  S
O877      In1297   2.232       .  S
O877       C1303   1.259       .  A
In878       O880   2.208       .  S
In878       O881   2.266       .  S
In878       O889   2.251       .  S
In878       O883   2.233       .  S
In878       O885   2.238       .  S
In878       O886   2.278       .  S
In878       O887   2.205   1_655  S
In878       O890   2.219       .  S
C879        O885   1.267       .  A
C879        O887   1.261   1_655  A
C879       C1238   1.468       .  S
O880        C888   1.261       .  A
O881        C888   1.272       .  A
C882        O889   1.266       .  A
C882        O883   1.263       .  A
C882       C1286   1.478       .  S
C884        O886   1.270       .  A
C884        O890   1.261       .  A
C884        C946   1.496       .  S
C888       C1067   1.486   1_655  S
N891        C896   1.358       .  A
N891        C895   1.359       .  A
N891        H923   1.036       .  S
N892        C899   1.356       .  A
N892        C900   1.353       .  A
N893       C1329   1.358   1_554  A
N893        H924   1.039   1_554  S
N894        C901   1.353       .  A
N894        C902   1.356       .  A
C895        C903   1.393       .  A
C895       C1343   1.431   1_554  A
C896        C912   1.418       .  A
C896        C904   1.383       .  A
C897       N1325   1.358       .  A
C897        C914   1.415       .  A
C898        C906   1.388       .  A
C899        C911   1.417       .  A
C899        C907   1.385       .  A
C900        C914   1.421       .  A
C900        C908   1.387       .  A
C901        C909   1.388       .  A
C901        C912   1.420       .  A
C902        C910   1.385       .  A
C902        C913   1.416       .  A
C903        C904   1.371       .  A
C903        H915   1.079       .  S
C904        H916   1.083       .  S
C905       C1338   1.371       .  A
C905        H917   1.081       .  S
C906       C1337   1.371   1_554  A
C906        H918   1.077       .  S
C907        C908   1.371       .  A
C907        H919   1.081       .  S
C908        H920   1.078       .  S
C909        C910   1.374       .  A
C909        H921   1.081       .  S
C910        H922   1.082       .  S
C911       C1327   1.431       .  A
C912       C1085   1.486       .  S
N925        C930   1.356       .  A
N925       C1361   1.358   1_554  A
N925        H957   1.036       .  S
N926        C933   1.355       .  A
N926        C934   1.358       .  A
N927        C932   1.358       .  A
N927        H958   1.032       .  S
N928        C935   1.356       .  A
N928        C936   1.354       .  A
C929       N1357   1.358       .  A
C929        C937   1.384       .  A
C929        C945   1.416       .  A
C930        C946   1.428       .  A
C930        C938   1.390       .  A
C931        C939   1.393       .  A
C932        C947   1.422       .  A
C933        C945   1.424   1_455  A
C933        C941   1.386       .  A
C934        C948   1.422       .  A
C934        C942   1.385       .  A
C935        C943   1.385       .  A
C935        C946   1.417   1_455  A
C936        C944   1.389       .  A
C936        C947   1.422       .  A
C937       C1370   1.370       .  A
C937        H949   1.081       .  S
C938       C1369   1.370   1_554  A
C938        H950   1.077       .  S
C939        C940   1.372       .  A
C939        H951   1.078       .  S
C940        H952   1.082       .  S
C941        C942   1.371       .  A
C941        H953   1.077       .  S
C942        H954   1.081       .  S
C943        C944   1.373       .  A
C943        H955   1.082   1_455  S
C944        H956   1.082       .  S
C945       C1098   1.492       .  S
In959       O961   2.222       .  S
In959       O962   2.280       .  S
In959       O970   2.253       .  S
In959       O964   2.236       .  S
In959       O966   2.229       .  S
In959       O967   2.269       .  S
In959       O968   2.205       .  S
In959       O971   2.210       .  S
C960        O966   1.269       .  A
C960        O968   1.263       .  A
C960       C1253   1.465       .  S
O961        C969   1.262       .  A
O962        C969   1.271       .  A
C963        O970   1.266       .  A
C963        O964   1.264       .  A
C963       C1214   1.489       .  S
C965        O967   1.272       .  A
C965        O971   1.259       .  A
C965       C1031   1.483       .  S
In972      O1406   2.240       .  S
In972       O975   2.278       .  S
In972       O983   2.260       .  S
In972       O977   2.234       .  S
In972       O979   2.236       .  S
In972       O980   2.280       .  S
In972       O981   2.198       .  S
In972       O984   2.228       .  S
C973        O979   1.267       .  A
C973        O981   1.260       .  A
C973       C1229   1.465       .  S
O974      In1404   2.240   1_554  S
O974       C1414   1.259   1_554  A
O975        C982   1.267       .  A
C976        O983   1.267       .  A
C976        O977   1.263       .  A
C976       C1205   1.490       .  S
C978        O980   1.271       .  A
C978        O984   1.259       .  A
C978       C1065   1.490       .  S
C982       O1406   1.259       .  A
In985       O987   2.218       .  S
In985       O988   2.273       .  S
In985       O996   2.245       .  S
In985       O990   2.237       .  S
In985       O992   2.252       .  S
In985       O993   2.267       .  S
In985       O994   2.195       .  S
In985       O997   2.234       .  S
C986        O992   1.268       .  A
C986        O994   1.259       .  A
O987        C995   1.260       .  A
O988        C995   1.271       .  A
C989        O996   1.265       .  A
C989        O990   1.264       .  A
C989       C1190   1.473       .  S
C991        O993   1.268       .  A
C991        O997   1.260       .  A
C991       C1066   1.495       .  S
In998      O1000   2.221       .  S
In998      O1001   2.265       .  S
In998      O1009   2.245       .  S
In998      O1003   2.230       .  S
In998      O1005   2.252       .  S
In998      O1006   2.274       .  S
In998      O1007   2.194       .  S
In998      O1010   2.230       .  S
C999       O1005   1.266       .  A
C999       O1007   1.259       .  A
O1000      C1008   1.262       .  A
O1001      C1008   1.271       .  A
C1002      O1009   1.266       .  A
C1002      O1003   1.264       .  A
C1002      C1181   1.476       .  S
C1004      O1006   1.267       .  A
C1004      O1010   1.259       .  A
C1004      C1032   1.496       .  S
N1011      C1016   1.358       .  A
N1011      C1015   1.356       .  A
N1011      H1043   1.033       .  S
N1012      C1019   1.353       .  A
N1012      C1020   1.356       .  A
N1013      C1018   1.358       .  A
N1013      C1017   1.358       .  A
N1013      H1044   1.036       .  S
N1014      C1021   1.357       .  A
N1014      C1022   1.354       .  A
C1015      C1023   1.384       .  A
C1015      C1031   1.418       .  A
C1016      C1032   1.431       .  A
C1016      C1024   1.393       .  A
C1017      C1025   1.388       .  A
C1017      C1034   1.428       .  A
C1018      C1033   1.419       .  A
C1018      C1026   1.385       .  A
C1019      C1031   1.422       .  A
C1019      C1027   1.388       .  A
C1020      C1034   1.417       .  A
C1020      C1028   1.385       .  A
C1021      C1029   1.385       .  A
C1021      C1032   1.419       .  A
C1022      C1030   1.389       .  A
C1022      C1033   1.424       .  A
C1023      C1024   1.370       .  A
C1023      H1035   1.083       .  S
C1024      H1036   1.079       .  S
C1025      C1026   1.370       .  A
C1025      H1037   1.076       .  S
C1026      H1038   1.081       .  S
C1027      C1028   1.372       .  A
C1027      H1039   1.080       .  S
C1028      H1040   1.082       .  S
C1029      C1030   1.371       .  A
C1029      H1041   1.081       .  S
C1030      H1042   1.079       .  S
C1034      C1089   1.498       .  S
N1045      C1050   1.359       .  A
N1045      C1049   1.357       .  A
N1045      H1077   1.037       .  S
N1046      C1053   1.354       .  A
N1046      C1054   1.357       .  A
N1047      C1052   1.357       .  A
N1047      C1051   1.356       .  A
N1047      H1078   1.038       .  S
N1048      C1055   1.356       .  A
N1048      C1056   1.353       .  A
C1049      C1057   1.384       .  A
C1049      C1065   1.419       .  A
C1050      C1066   1.429       .  A
C1050      C1058   1.392       .  A
C1051      C1059   1.389       .  A
C1051      C1068   1.426       .  A
C1052      C1067   1.413   1_655  A
C1052      C1060   1.383       .  A
C1053      C1065   1.422       .  A
C1053      C1061   1.387       .  A
C1054      C1068   1.418   1_455  A
C1054      C1062   1.385   1_455  A
C1055      C1063   1.385       .  A
C1055      C1066   1.415       .  A
C1056      C1064   1.387       .  A
C1056      C1067   1.420       .  A
C1057      C1058   1.371       .  A
C1057      H1069   1.082       .  S
C1058      H1070   1.079       .  S
C1059      C1060   1.371       .  A
C1059      H1071   1.074       .  S
C1060      H1072   1.081       .  S
C1061      C1062   1.375   1_455  A
C1061      H1073   1.081       .  S
C1062      H1074   1.082       .  S
C1063      C1064   1.368       .  A
C1063      H1075   1.081       .  S
C1064      H1076   1.077       .  S
C1068      C1102   1.499       .  S
In1079     O1081   2.230       .  S
In1079     O1082   2.275       .  S
In1079     O1090   2.251       .  S
In1079     O1084   2.235       .  S
In1079     O1086   2.234       .  S
In1079     O1087   2.275       .  S
In1079     O1088   2.201       .  S
In1079     O1091   2.213       .  S
C1080      O1086   1.269       .  A
C1080      O1088   1.261       .  A
C1080      C1142   1.468       .  S
O1081      C1089   1.262       .  A
O1082      C1089   1.270       .  A
C1083      O1090   1.266       .  A
C1083      O1084   1.264       .  A
C1083      C1109   1.487       .  S
C1085      O1087   1.272       .  A
C1085      O1091   1.259       .  A
In1092     O1094   2.227       .  S
In1092     O1095   2.282       .  S
In1092     O1103   2.257       .  S
In1092     O1097   2.229       .  S
In1092     O1099   2.233       .  S
In1092     O1100   2.273       .  S
In1092     O1101   2.208   1_655  S
In1092     O1104   2.219       .  S
C1093      O1099   1.268       .  A
C1093      O1101   1.262   1_655  A
C1093      C1166   1.472       .  S
O1094      C1102   1.262       .  A
O1095      C1102   1.271       .  A
C1096      O1103   1.267       .  A
C1096      O1097   1.264       .  A
C1096      C1118   1.488       .  S
C1098      O1100   1.272       .  A
C1098      O1104   1.260       .  A
C1105      C1106   1.406       .  A
C1105      C1110   1.404       .  A
C1105      H1115   1.083       .  S
C1106      C1111   1.493       .  S
C1106      C1107   1.411       .  A
C1107      C1108   1.401       .  A
C1107      O1112   1.372       .  S
C1108      C1109   1.406       .  A
C1108      H1113   1.083       .  S
C1109      C1110   1.412       .  A
C1110      O1114   1.372       .  S
C1111      C1116   1.410       .  A
C1111      C1120   1.406       .  A
O1112      H1128   0.992       .  S
O1114      H1125   0.992       .  S
C1116      C1117   1.402       .  A
C1116      O1121   1.372       .  S
C1117      C1118   1.406       .  A
C1117      H1122   1.083       .  S
C1118      C1119   1.412       .  A
C1119      C1120   1.405       .  A
C1119      O1123   1.372       .  S
C1120      H1124   1.083       .  S
O1121      H1126   0.992       .  S
O1123      H1127   0.992       .  S
C1129      C1130   1.404       .  A
C1129      C1134   1.400       .  A
C1129      H1139   1.084       .  S
C1130      C1135   1.471       .  S
C1130      C1131   1.404       .  A
C1131      C1132   1.392       .  A
C1131      O1136   1.374       .  S
C1132      C1133   1.404       .  A
C1132      H1137   1.084       .  S
C1133      C1134   1.407       .  A
C1135      C1140   1.408       .  A
C1135      C1144   1.399       .  A
O1136      H1152   0.992       .  S
O1138      H1149   0.991   1_565  S
C1140      C1141   1.395       .  A
C1140      O1145   1.372       .  S
C1141      C1142   1.401       .  A
C1141      H1146   1.084       .  S
C1142      C1143   1.411       .  A
C1143      C1144   1.395       .  A
C1143      O1147   1.372       .  S
C1144      H1148   1.084       .  S
O1145      H1150   0.992       .  S
O1147      H1151   0.991       .  S
C1153      C1154   1.400       .  A
C1153      H1163   1.083       .  S
C1154      C1159   1.477       .  S
C1154      C1155   1.411       .  A
C1155      C1156   1.401       .  A
C1155      O1160   1.372       .  S
C1156      C1157   1.402       .  A
C1156      H1161   1.084       .  S
C1158      O1162   1.372       .  S
C1159      C1164   1.410   1_455  A
C1159      C1168   1.401       .  A
O1160      H1176   0.992       .  S
O1162      H1173   0.991       .  S
C1164      C1165   1.397       .  A
C1164      O1169   1.373       .  S
C1165      C1166   1.401       .  A
C1165      H1170   1.084       .  S
C1166      C1167   1.412   1_655  A
C1167      C1168   1.397       .  A
C1167      O1171   1.372       .  S
C1168      H1172   1.084       .  S
O1169      H1174   0.992       .  S
O1171      H1175   0.992       .  S
C1177      C1178   1.408       .  A
C1177      C1182   1.401       .  A
C1177      H1187   1.082       .  S
C1178      C1183   1.494       .  S
C1178      C1179   1.413       .  A
C1179      C1180   1.402       .  A
C1179      O1184   1.371       .  S
C1180      C1181   1.402       .  A
C1180      H1185   1.084       .  S
C1181      C1182   1.407       .  A
C1182      O1186   1.372       .  S
C1183      C1188   1.413       .  A
C1183      C1192   1.408       .  A
O1184      H1200   0.991       .  S
O1186      H1197   0.992       .  S
C1188      C1189   1.405       .  A
C1188      O1193   1.373       .  S
C1189      C1190   1.402       .  A
C1189      H1194   1.084       .  S
C1190      C1191   1.405       .  A
C1191      C1192   1.400       .  A
C1191      O1195   1.372       .  S
C1192      H1196   1.083       .  S
O1193      H1198   0.992       .  S
O1195      H1199   0.992       .  S
C1201      C1202   1.403       .  A
C1201      C1206   1.402       .  A
C1201      H1211   1.083       .  S
C1202      C1207   1.490       .  S
C1202      C1635   1.410   1_554  A
C1203      C1634   1.410       .  A
C1203      C1204   1.405       .  A
C1203      O1208   1.371       .  S
C1204      C1205   1.407       .  A
C1204      H1209   1.083       .  S
C1205      C1638   1.414       .  A
C1206      C1637   1.414       .  A
C1206      O1210   1.372       .  S
C1207      C1212   1.410       .  A
C1207      C1216   1.403       .  A
O1208      H1224   0.992   1_565  S
O1210      H1221   0.992       .  S
C1212      C1213   1.405       .  A
C1212      O1217   1.372       .  S
C1213      C1214   1.407       .  A
C1213      H1218   1.084       .  S
C1214      C1215   1.413       .  A
C1215      C1216   1.402       .  A
C1215      O1219   1.371   1_554  S
C1216      H1652   1.084   1_554  S
O1217      H1222   0.992       .  S
O1219      H1223   0.992       .  S
H1220      C1648   1.084       .  S
C1225      C1226   1.405       .  A
C1225      C1230   1.398       .  A
C1225      H1235   1.083       .  S
C1226      C1231   1.475       .  S
C1226      C1659   1.408   1_554  A
C1227      C1658   1.408       .  A
C1227      C1228   1.390       .  A
C1227      O1232   1.372   1_455  S
C1228      C1229   1.402       .  A
C1228      H1233   1.083       .  S
C1229      C1662   1.406       .  A
C1230      C1661   1.406       .  A
C1230      O1234   1.372       .  S
C1231      C1236   1.407       .  A
C1231      C1240   1.404   1_455  A
O1232      H1248   0.992       .  S
O1234      H1245   0.992       .  S
C1236      C1237   1.395       .  A
C1236      O1241   1.373       .  S
C1237      C1238   1.404   1_455  A
C1237      H1242   1.084       .  S
C1238      C1239   1.406       .  A
C1239      C1240   1.394       .  A
C1239      O1243   1.371       .  S
C1240      H1244   1.084       .  S
O1241      H1246   0.992       .  S
O1243      H1247   0.992       .  S
C1249      C1250   1.405       .  A
C1249      C1254   1.395       .  A
C1249      H1259   1.084       .  S
C1250      C1255   1.473       .  S
C1250      C1251   1.405       .  A
C1251      C1252   1.396       .  A
C1251      O1256   1.372       .  S
C1252      C1253   1.403       .  A
C1252      H1257   1.084       .  S
C1253      C1254   1.405       .  A
C1254      O1258   1.372       .  S
C1255      C1260   1.409       .  A
C1255      C1696   1.398   1_554  A
O1256      H1272   0.992       .  S
O1258      H1269   0.992       .  S
C1260      C1261   1.400       .  A
C1260      O1265   1.371       .  S
C1261      C1694   1.404       .  A
C1261      H1266   1.084       .  S
C1262      C1693   1.404       .  A
C1262      C1263   1.411       .  A
C1263      C1264   1.390       .  A
C1263      O1267   1.372       .  S
C1264      C1687   1.398       .  A
C1264      H1268   1.084       .  S
O1265      H1270   0.992       .  S
O1267      H1271   0.992       .  S
C1273      C1274   1.409       .  A
C1273      C1278   1.402       .  A
C1273      H1283   1.083       .  S
C1274      C1279   1.498       .  S
C1274      C1707   1.416   1_554  A
C1275      C1706   1.416       .  A
C1275      C1276   1.402       .  A
C1275      O1280   1.372       .  S
C1276      C1277   1.401       .  A
C1276      H1281   1.084       .  S
C1277      C1710   1.406       .  A
C1278      C1709   1.406   1_554  A
C1278      O1282   1.372       .  S
C1279      C1284   1.415       .  A
C1279      C1288   1.408       .  A
O1280      H1296   0.992       .  S
O1282      H1293   0.992       .  S
C1284      C1285   1.403       .  A
C1284      O1289   1.372       .  S
C1285      C1286   1.402       .  A
C1285      H1290   1.084       .  S
C1286      C1287   1.407       .  A
C1287      C1288   1.402       .  A
C1287      O1723   1.372   1_554  S
C1288      H1724   1.083   1_554  S
O1289      H1294   0.992       .  S
O1291      C1719   1.372       .  S
O1291      H1727   0.991       .  S
H1292      C1720   1.083       .  S
H1295      O1723   0.991       .  S
In1297     O1299   2.218       .  S
In1297     O1300   2.266       .  S
In1297     O1308   2.251       .  S
In1297     O1305   2.273       .  S
In1297     O1306   2.193       .  S
C1298      O1306   1.257       .  A
C1298      C1694   1.470   1_556  S
O1299      C1307   1.261       .  A
O1300      C1307   1.270       .  A
C1301      O1308   1.266       .  A
C1301      C1709   1.475       .  S
C1303      O1305   1.265       .  A
C1303      C1343   1.495       .  S
C1307      C1465   1.490       .  S
In1310     O1312   2.208       .  S
In1310     O1313   2.266       .  S
In1310     O1321   2.251       .  S
In1310     O1315   2.233       .  S
In1310     O1317   2.238       .  S
In1310     O1318   2.278       .  S
In1310     O1319   2.205   1_655  S
In1310     O1322   2.219       .  S
C1311      O1317   1.267       .  A
C1311      O1319   1.261   1_655  A
C1311      C1670   1.468       .  S
O1312      C1320   1.261       .  A
O1313      C1320   1.272       .  A
C1314      O1321   1.266       .  A
C1314      O1315   1.263       .  A
C1314      C1718   1.478       .  S
C1316      O1318   1.270       .  A
C1316      O1322   1.261       .  A
C1316      C1378   1.496       .  S
C1320      C1499   1.486   1_655  S
N1323      C1328   1.358       .  A
N1323      C1327   1.359       .  A
N1323      H1355   1.036       .  S
N1324      C1331   1.356       .  A
N1324      C1332   1.353       .  A
N1325      H1356   1.039       .  S
N1326      C1333   1.353       .  A
N1326      C1334   1.356       .  A
C1327      C1335   1.393       .  A
C1328      C1344   1.418       .  A
C1328      C1336   1.383       .  A
C1329      C1346   1.415       .  A
C1330      C1338   1.388       .  A
C1331      C1343   1.417       .  A
C1331      C1339   1.385       .  A
C1332      C1346   1.421       .  A
C1332      C1340   1.387       .  A
C1333      C1341   1.388       .  A
C1333      C1344   1.420       .  A
C1334      C1342   1.385       .  A
C1334      C1345   1.416       .  A
C1335      C1336   1.371       .  A
C1335      H1347   1.079       .  S
C1336      H1348   1.083       .  S
C1337      H1349   1.081       .  S
C1338      H1350   1.077       .  S
C1339      C1340   1.371       .  A
C1339      H1351   1.081       .  S
C1340      H1352   1.078       .  S
C1341      C1342   1.374       .  A
C1341      H1353   1.081       .  S
C1342      H1354   1.082       .  S
C1344      C1517   1.486       .  S
N1357      C1362   1.356       .  A
N1357      H1389   1.036       .  S
N1358      C1365   1.355       .  A
N1358      C1366   1.358       .  A
N1359      C1364   1.358       .  A
N1359      H1390   1.032       .  S
N1360      C1367   1.356       .  A
N1360      C1368   1.354       .  A
C1361      C1369   1.384       .  A
C1361      C1377   1.416       .  A
C1362      C1378   1.428       .  A
C1362      C1370   1.389       .  A
C1363      C1371   1.393       .  A
C1364      C1379   1.422       .  A
C1365      C1377   1.424   1_455  A
C1365      C1373   1.386       .  A
C1366      C1380   1.422       .  A
C1366      C1374   1.385       .  A
C1367      C1375   1.385       .  A
C1367      C1378   1.417   1_455  A
C1368      C1376   1.389       .  A
C1368      C1379   1.422       .  A
C1369      H1381   1.081       .  S
C1370      H1382   1.077       .  S
C1371      C1372   1.372       .  A
C1371      H1383   1.078       .  S
C1372      H1384   1.082       .  S
C1373      C1374   1.371       .  A
C1373      H1385   1.077       .  S
C1374      H1386   1.081       .  S
C1375      C1376   1.373       .  A
C1375      H1387   1.082   1_455  S
C1376      H1388   1.082       .  S
C1377      C1530   1.492       .  S
In1391     O1393   2.222       .  S
In1391     O1394   2.279       .  S
In1391     O1402   2.254       .  S
In1391     O1396   2.237       .  S
In1391     O1398   2.229       .  S
In1391     O1399   2.268       .  S
In1391     O1400   2.206       .  S
In1391     O1403   2.210       .  S
C1392      O1398   1.269       .  A
C1392      O1400   1.263       .  A
C1392      C1685   1.466       .  S
O1393      C1401   1.262       .  A
O1394      C1401   1.271       .  A
C1395      O1402   1.266       .  A
C1395      O1396   1.264       .  A
C1395      C1646   1.489       .  S
C1397      O1399   1.272       .  A
C1397      O1403   1.259       .  A
C1397      C1463   1.483       .  S
In1404     O1407   2.278       .  S
In1404     O1415   2.259       .  S
In1404     O1409   2.234   1_556  S
In1404     O1411   2.237   1_556  S
In1404     O1412   2.281       .  S
In1404     O1413   2.198       .  S
In1404     O1416   2.228       .  S
C1405      O1411   1.267   1_556  A
C1405      O1413   1.260       .  A
C1405      C1661   1.465   1_556  S
O1407      C1414   1.267       .  A
C1408      O1415   1.267       .  A
C1408      O1409   1.263   1_556  A
C1408      C1637   1.490   1_556  S
C1410      O1412   1.271       .  A
C1410      O1416   1.259       .  A
C1410      C1497   1.490       .  S
In1417     O1419   2.218       .  S
In1417     O1420   2.273       .  S
In1417     O1428   2.246       .  S
In1417     O1422   2.237       .  S
In1417     O1424   2.252       .  S
In1417     O1425   2.268       .  S
In1417     O1426   2.195       .  S
In1417     O1429   2.234       .  S
C1418      O1424   1.268       .  A
C1418      O1426   1.259       .  A
O1419      C1427   1.260       .  A
O1420      C1427   1.271       .  A
C1421      O1428   1.265       .  A
C1421      O1422   1.264       .  A
C1421      C1622   1.474       .  S
C1423      O1425   1.268       .  A
C1423      O1429   1.260       .  A
C1423      C1498   1.495       .  S
In1430     O1432   2.220       .  S
In1430     O1433   2.264       .  S
In1430     O1441   2.245       .  S
In1430     O1435   2.229       .  S
In1430     O1437   2.252       .  S
In1430     O1438   2.274       .  S
In1430     O1439   2.194       .  S
In1430     O1442   2.231       .  S
C1431      O1437   1.266       .  A
C1431      O1439   1.259       .  A
O1432      C1440   1.262       .  A
O1433      C1440   1.271       .  A
C1434      O1441   1.266       .  A
C1434      O1435   1.264       .  A
C1434      C1613   1.476       .  S
C1436      O1438   1.267       .  A
C1436      O1442   1.259       .  A
C1436      C1464   1.496       .  S
N1443      C1448   1.358       .  A
N1443      C1447   1.356       .  A
N1443      H1475   1.033       .  S
N1444      C1451   1.353       .  A
N1444      C1452   1.356       .  A
N1445      C1450   1.358       .  A
N1445      C1449   1.358       .  A
N1445      H1476   1.036       .  S
N1446      C1453   1.357       .  A
N1446      C1454   1.354       .  A
C1447      C1455   1.384       .  A
C1447      C1463   1.418       .  A
C1448      C1464   1.430       .  A
C1448      C1456   1.393       .  A
C1449      C1457   1.388       .  A
C1449      C1466   1.428       .  A
C1450      C1465   1.419       .  A
C1450      C1458   1.385       .  A
C1451      C1463   1.422       .  A
C1451      C1459   1.388       .  A
C1452      C1466   1.417       .  A
C1452      C1460   1.385       .  A
C1453      C1461   1.384       .  A
C1453      C1464   1.419       .  A
C1454      C1462   1.389       .  A
C1454      C1465   1.424       .  A
C1455      C1456   1.370       .  A
C1455      H1467   1.083       .  S
C1456      H1468   1.079       .  S
C1457      C1458   1.370       .  A
C1457      H1469   1.076       .  S
C1458      H1470   1.081       .  S
C1459      C1460   1.372       .  A
C1459      H1471   1.080       .  S
C1460      H1472   1.082       .  S
C1461      C1462   1.371       .  A
C1461      H1473   1.081       .  S
C1462      H1474   1.079       .  S
C1466      C1521   1.498       .  S
N1477      C1482   1.359       .  A
N1477      C1481   1.357       .  A
N1477      H1509   1.037       .  S
N1478      C1485   1.354       .  A
N1478      C1486   1.357       .  A
N1479      C1484   1.357       .  A
N1479      C1483   1.356       .  A
N1479      H1510   1.038       .  S
N1480      C1487   1.356       .  A
N1480      C1488   1.353       .  A
C1481      C1489   1.384       .  A
C1481      C1497   1.419       .  A
C1482      C1498   1.429       .  A
C1482      C1490   1.392       .  A
C1483      C1491   1.389       .  A
C1483      C1500   1.427       .  A
C1484      C1499   1.413   1_655  A
C1484      C1492   1.383       .  A
C1485      C1497   1.422       .  A
C1485      C1493   1.387       .  A
C1486      C1500   1.419   1_455  A
C1486      C1494   1.385   1_455  A
C1487      C1495   1.385       .  A
C1487      C1498   1.416       .  A
C1488      C1496   1.387       .  A
C1488      C1499   1.420       .  A
C1489      C1490   1.371       .  A
C1489      H1501   1.082       .  S
C1490      H1502   1.079       .  S
C1491      C1492   1.371       .  A
C1491      H1503   1.075       .  S
C1492      H1504   1.081       .  S
C1493      C1494   1.375   1_455  A
C1493      H1505   1.081       .  S
C1494      H1506   1.082       .  S
C1495      C1496   1.368       .  A
C1495      H1507   1.081       .  S
C1496      H1508   1.077       .  S
C1500      C1534   1.499       .  S
In1511     O1513   2.230       .  S
In1511     O1514   2.275       .  S
In1511     O1522   2.251       .  S
In1511     O1516   2.235       .  S
In1511     O1518   2.233       .  S
In1511     O1519   2.274       .  S
In1511     O1520   2.201       .  S
In1511     O1523   2.213       .  S
C1512      O1518   1.269       .  A
C1512      O1520   1.261       .  A
C1512      C1574   1.468       .  S
O1513      C1521   1.262       .  A
O1514      C1521   1.270       .  A
C1515      O1522   1.266       .  A
C1515      O1516   1.264       .  A
C1515      C1541   1.487       .  S
C1517      O1519   1.272       .  A
C1517      O1523   1.259       .  A
In1524     O1526   2.228       .  S
In1524     O1527   2.282       .  S
In1524     O1535   2.257       .  S
In1524     O1529   2.230       .  S
In1524     O1531   2.233       .  S
In1524     O1532   2.274       .  S
In1524     O1533   2.208   1_655  S
In1524     O1536   2.219       .  S
C1525      O1531   1.268       .  A
C1525      O1533   1.262   1_655  A
C1525      C1598   1.472       .  S
O1526      C1534   1.262       .  A
O1527      C1534   1.271       .  A
C1528      O1535   1.267       .  A
C1528      O1529   1.264       .  A
C1528      C1550   1.488       .  S
C1530      O1532   1.272       .  A
C1530      O1536   1.260       .  A
C1537      C1538   1.406       .  A
C1537      C1542   1.404       .  A
C1537      H1547   1.083       .  S
C1538      C1543   1.493       .  S
C1538      C1539   1.410       .  A
C1539      C1540   1.401       .  A
C1539      O1544   1.372       .  S
C1540      C1541   1.406       .  A
C1540      H1545   1.083       .  S
C1541      C1542   1.412       .  A
C1542      O1546   1.372       .  S
C1543      C1548   1.410       .  A
C1543      C1552   1.406       .  A
O1544      H1560   0.992       .  S
O1546      H1557   0.992       .  S
C1548      C1549   1.402       .  A
C1548      O1553   1.372       .  S
C1549      C1550   1.406       .  A
C1549      H1554   1.083       .  S
C1550      C1551   1.412       .  A
C1551      C1552   1.405       .  A
C1551      O1555   1.372       .  S
C1552      H1556   1.083       .  S
O1553      H1558   0.992       .  S
O1555      H1559   0.992       .  S
C1561      C1562   1.404       .  A
C1561      C1566   1.400       .  A
C1561      H1571   1.084       .  S
C1562      C1567   1.470       .  S
C1562      C1563   1.404       .  A
C1563      C1564   1.392       .  A
C1563      O1568   1.374       .  S
C1564      C1565   1.404       .  A
C1564      H1569   1.084       .  S
C1565      C1566   1.407       .  A
C1567      C1572   1.408       .  A
C1567      C1576   1.399       .  A
O1568      H1584   0.992       .  S
O1570      H1581   0.991   1_565  S
C1572      C1573   1.395       .  A
C1572      O1577   1.372       .  S
C1573      C1574   1.401       .  A
C1573      H1578   1.084       .  S
C1574      C1575   1.412       .  A
C1575      C1576   1.395       .  A
C1575      O1579   1.372       .  S
C1576      H1580   1.084       .  S
O1577      H1582   0.992       .  S
O1579      H1583   0.991       .  S
C1585      C1586   1.400       .  A
C1585      H1595   1.083       .  S
C1586      C1591   1.477       .  S
C1586      C1587   1.411       .  A
C1587      C1588   1.401       .  A
C1587      O1592   1.372       .  S
C1588      C1589   1.402       .  A
C1588      H1593   1.084       .  S
C1590      O1594   1.372       .  S
C1591      C1596   1.410   1_455  A
C1591      C1600   1.401       .  A
O1592      H1608   0.992       .  S
O1594      H1605   0.991       .  S
C1596      C1597   1.397       .  A
C1596      O1601   1.373       .  S
C1597      C1598   1.401       .  A
C1597      H1602   1.084       .  S
C1598      C1599   1.412   1_655  A
C1599      C1600   1.397       .  A
C1599      O1603   1.372       .  S
C1600      H1604   1.084       .  S
O1601      H1606   0.992       .  S
O1603      H1607   0.992       .  S
C1609      C1610   1.408       .  A
C1609      C1614   1.401       .  A
C1609      H1619   1.082       .  S
C1610      C1615   1.495       .  S
C1610      C1611   1.413       .  A
C1611      C1612   1.401       .  A
C1611      O1616   1.371       .  S
C1612      C1613   1.402       .  A
C1612      H1617   1.084       .  S
C1613      C1614   1.407       .  A
C1614      O1618   1.372       .  S
C1615      C1620   1.413       .  A
C1615      C1624   1.408       .  A
O1616      H1632   0.991       .  S
O1618      H1629   0.992       .  S
C1620      C1621   1.406       .  A
C1620      O1625   1.373       .  S
C1621      C1622   1.402       .  A
C1621      H1626   1.084       .  S
C1622      C1623   1.405       .  A
C1623      C1624   1.400       .  A
C1623      O1627   1.372       .  S
C1624      H1628   1.083       .  S
O1625      H1630   0.992       .  S
O1627      H1631   0.992       .  S
C1633      C1634   1.403       .  A
C1633      C1638   1.402       .  A
C1633      H1643   1.083       .  S
C1634      C1639   1.490       .  S
C1635      C1636   1.405       .  A
C1635      O1640   1.371       .  S
C1636      C1637   1.407   1_556  A
C1636      H1641   1.083       .  S
C1638      O1642   1.372       .  S
C1639      C1644   1.410       .  A
C1639      C1648   1.403       .  A
O1640      H1656   0.992   1_565  S
O1642      H1653   0.992       .  S
C1644      C1645   1.406       .  A
C1644      O1649   1.372       .  S
C1645      C1646   1.407       .  A
C1645      H1650   1.084       .  S
C1646      C1647   1.413       .  A
C1647      C1648   1.402       .  A
C1647      O1651   1.371       .  S
O1649      H1654   0.992       .  S
O1651      H1655   0.992       .  S
C1657      C1658   1.405       .  A
C1657      C1662   1.398       .  A
C1657      H1667   1.083       .  S
C1658      C1663   1.475       .  S
C1659      C1660   1.390       .  A
C1659      O1664   1.372   1_455  S
C1660      C1661   1.402   1_556  A
C1660      H1665   1.083       .  S
C1662      O1666   1.372       .  S
C1663      C1668   1.407       .  A
C1663      C1672   1.404   1_455  A
O1664      H1680   0.992       .  S
O1666      H1677   0.992       .  S
C1668      C1669   1.395       .  A
C1668      O1673   1.373       .  S
C1669      C1670   1.404   1_455  A
C1669      H1674   1.084       .  S
C1670      C1671   1.406       .  A
C1671      C1672   1.394       .  A
C1671      O1675   1.371       .  S
C1672      H1676   1.084       .  S
O1673      H1678   0.992       .  S
O1675      H1679   0.992       .  S
C1681      C1682   1.405       .  A
C1681      C1686   1.395       .  A
C1681      H1691   1.084       .  S
C1682      C1687   1.473       .  S
C1682      C1683   1.406       .  A
C1683      C1684   1.396       .  A
C1683      O1688   1.372       .  S
C1684      C1685   1.403       .  A
C1684      H1689   1.084       .  S
C1685      C1686   1.405       .  A
C1686      O1690   1.372       .  S
C1687      C1692   1.409       .  A
O1688      H1704   0.992       .  S
O1690      H1701   0.992       .  S
C1692      C1693   1.400       .  A
C1692      O1697   1.371       .  S
C1693      H1698   1.084       .  S
C1694      C1695   1.411   1_554  A
C1695      C1696   1.390       .  A
C1695      O1699   1.372       .  S
C1696      H1700   1.084       .  S
O1697      H1702   0.992       .  S
O1699      H1703   0.992       .  S
C1705      C1706   1.409       .  A
C1705      C1710   1.402       .  A
C1705      H1715   1.083       .  S
C1706      C1711   1.498       .  S
C1707      C1708   1.402       .  A
C1707      O1712   1.372       .  S
C1708      C1709   1.401       .  A
C1708      H1713   1.084       .  S
C1710      O1714   1.372       .  S
C1711      C1716   1.415       .  A
C1711      C1720   1.408       .  A
O1712      H1728   0.992       .  S
O1714      H1725   0.992       .  S
C1716      C1717   1.403       .  A
C1716      O1721   1.372       .  S
C1717      C1718   1.402       .  A
C1717      H1722   1.084       .  S
C1718      C1719   1.407       .  A
C1719      C1720   1.402       .  A
O1721      H1726   0.992       .  S
