geometry optimzed in LAMMPS
_audit_creation_date              2020-11-30 
_audit_creation_method            'lammps2cif' 
_symmetry_space_group_name_H-M    'P1' 
_symmetry_Int_Tables_number       1 
_symmetry_cell_setting            triclinic 
loop_ 
_symmetry_equiv_pos_as_xyz 
  x,y,z 
_cell_length_a                    48.8701237 
_cell_length_b                    48.32591625562536 
_cell_length_c                    46.90793381774439 
_cell_angle_alpha                 91.06330793927837 
_cell_angle_beta                  89.30287157374184 
_cell_angle_gamma                 120.88694781959228 
loop_ 
_atom_site_label 
_atom_site_type_symbol 
_atom_site_fract_x 
_atom_site_fract_y 
_atom_site_fract_z 
_atom_site_charge 
C1          C  0.03752405  0.07114543  0.64086851     0.02400
C2          C  0.01531135  0.07636536  0.65533159    -0.13800
C3          C  0.01788958  0.08310148  0.68475181    -0.00100
C4          C  0.04346752  0.08472236  0.69974238    -0.12300
C5          C  0.06616977  0.07982712  0.68543510     0.02400
C6          C  0.06298112  0.07297261  0.65595097    -0.11700
H7          H  0.99572728  0.07501703  0.64350378     0.08000
H8          H  0.04525559  0.08884992  0.72259879     0.05500
H9          H  0.08047256  0.06940926  0.64472193     0.05400
C10         C  0.03543366  0.38111271  0.64128976     0.02400
C11         C  0.01368562  0.35384827  0.65699010    -0.13800
C12         C  0.02233816  0.34682400  0.68309293    -0.00100
C13         C  0.05262524  0.36838474  0.69426754    -0.12300
C14         C  0.07388803  0.39668786  0.67993746     0.02400
C15         C  0.06584994  0.40229352  0.65290712    -0.11700
H16         H  0.48683549  0.34086184  0.65192160     0.08000
H17         H  0.05897789  0.36428292  0.71517949     0.05500
H18         H  0.08288132  0.42368024  0.64155258     0.05400
C19         C  0.45942174  0.46898077  0.85490715     0.79500
N20         N  0.49166332  0.48454874  0.85513485    -0.78800
C21         C  0.00655855  0.46644942  0.85555111     0.81900
N22         N  0.49008518  0.43528833  0.85233317    -0.78800
C23         C  0.45765208  0.41929235  0.85240739     0.82000
N24         N  0.44258186  0.43635871  0.85314589    -0.80500
O25         O  0.31056030  0.06772745  0.76489332    -0.86100
O26         O  0.37050201  0.11637654  0.75676649    -0.83100
C27         C  0.37637122  0.13314811  0.77956265     0.97400
O28         O  0.38400468  0.12494466  0.80202086    -0.83200
O29         O  0.38148993  0.08283481  0.84228110    -0.85800
C30         C  0.35480818  0.06751848  0.85470970     1.01900
O31         O  0.32960387  0.05262001  0.84018826    -0.78600
O32         O  0.29085714  0.02503041  0.79212397    -0.78800
C33         C  0.28773946  0.04586196  0.77865988     1.01900
O34         O  0.32454722  0.02100938  0.74035076    -0.86100
O35         O  0.38603425  0.06785089  0.73652737    -0.83100
C36         C  0.41430204  0.08755417  0.74327007     0.97400
O37         O  0.41946373  0.10599596  0.76458983    -0.83200
O38         O  0.40870600  0.05943384  0.80308231    -0.85800
C39         C  0.39485406  0.03488559  0.81851325     1.01900
O40         O  0.36570359  0.02299775  0.82521388    -0.78600
O41         O  0.33252535  0.49748174  0.77779239    -0.78700
C42         C  0.32752904  0.99877043  0.75083981     1.01800
Cr43       Cr  0.34870438  0.06795395  0.75223261     1.93700
Cr44       Cr  0.39544074  0.09139929  0.80182680     1.93200
Cr45       Cr  0.33105892  0.02741909  0.80690363     1.39100
O46         O  0.35792501  0.06230746  0.78726287    -1.23800
O47         O  0.35357173  0.16270233  0.76407813    -0.86100
O48         O  0.30522573  0.17431179  0.75458800    -0.83100
C49         C  0.28759517  0.16541038  0.77681260     0.97400
O50         O  0.29585075  0.18277981  0.79904107    -0.83200
O51         O  0.33544088  0.22337023  0.84072890    -0.85800
C52         C  0.34565209  0.20804246  0.85406242     1.01900
O53         O  0.36148981  0.19798155  0.84079672    -0.78600
O54         O  0.39186896  0.18599091  0.79598233    -0.78800
C55         C  0.37396906  0.16224681  0.77983921     1.01900
O56         O  0.40055570  0.22488121  0.74284537    -0.86100
O57         O  0.35518392  0.23932209  0.73510783    -0.83100
C58         C  0.33605071  0.24861682  0.74062858     0.97400
O59         O  0.31728155  0.23636254  0.76147616    -0.83200
O60         O  0.36308324  0.27395400  0.80112615    -0.85800
C61         C  0.38668517  0.28470139  0.81756388     1.01900
O62         O  0.39521955  0.26578498  0.82702396    -0.78600
O63         O  0.42166177  0.25339945  0.78169099    -0.78700
C64         C  0.42303844  0.24934009  0.75535741     1.01800
Cr65       Cr  0.35367325  0.20144143  0.75190514     1.93700
Cr66       Cr  0.32992550  0.22807802  0.79954277     1.93200
Cr67       Cr  0.38995836  0.22480352  0.80948201     1.39100
O68         O  0.35780379  0.21749808  0.78707385    -1.23800
O69         O  0.24623428  0.11711331  0.75518876    -0.86100
O70         O  0.25787153  0.06870288  0.76532445    -0.83100
C71         C  0.25768421  0.04598226  0.77827252     0.97400
O72         O  0.23247115  0.02419457  0.79012304    -0.83200
O73         O  0.22375925  0.05238316  0.83847748    -0.85800
C74         C  0.21573219  0.06842854  0.85424834     1.01900
O75         O  0.20364699  0.08358037  0.84355060    -0.78600
O76         O  0.24228991  0.12526114  0.80087095    -0.78800
C77         C  0.25719435  0.13442185  0.77752146     1.01900
O78         O  0.18246206  0.06819656  0.73672818    -0.86100
O79         O  0.19748182  0.02163205  0.74089183    -0.83100
C80         C  0.17089191  0.00002252  0.75058482     0.97400
O81         O  0.16467582  0.49609364  0.77778341    -0.83200
O82         O  0.15724147  0.02326471  0.82654970    -0.85800
C83         C  0.14003624  0.03512945  0.82120625     1.01900
O84         O  0.15085896  0.06006357  0.80634049    -0.78600
O85         O  0.18620504  0.10526984  0.76635937    -0.78700
C86         C  0.17376344  0.08758356  0.74445527     1.01800
Cr87       Cr  0.21991485  0.06854466  0.75216574     1.93700
Cr88       Cr  0.19557702  0.02742583  0.80630561     1.93200
Cr89       Cr  0.19676698  0.09167204  0.80306798     1.39100
O90         O  0.20435721  0.06261324  0.78736893    -1.23800
C91         C  0.34806202  0.38436423  0.63577373     0.02400
C92         C  0.34605236  0.35800346  0.64996805    -0.13800
C93         C  0.33648701  0.35199475  0.67860567    -0.00100
C94         C  0.33048295  0.37372449  0.69360069    -0.12300
C95         C  0.33322132  0.40080871  0.68014359     0.02400
C96         C  0.34191009  0.40593449  0.65115013    -0.11700
H97         H  0.35178291  0.34189319  0.63859323     0.08000
H98         H  0.32449461  0.37004806  0.71607654     0.05500
H99         H  0.34434046  0.42690946  0.64073381     0.05400
C100        C  0.19691442  0.39854948  0.31288677     0.02400
C101        C  0.17391718  0.39902437  0.33106822    -0.13800
C102        C  0.18190926  0.41283093  0.35848281    -0.00100
C103        C  0.21220251  0.42312736  0.36945364    -0.12300
C104        C  0.23472856  0.42073518  0.35253207     0.02400
C105        C  0.22792284  0.41115233  0.32379193    -0.11700
H106        H  0.14951480  0.38884799  0.32414650     0.08000
H107        H  0.21759903  0.43131523  0.39144551     0.05500
H108        H  0.24696090  0.41306359  0.31048683     0.05400
C109        C  0.51969435  0.22322698  0.30804142     0.02400
C110        C  0.51650763  0.24628627  0.32399790    -0.13800
C111        C  0.50961476  0.24232578  0.35333308    -0.00100
C112        C  0.50515498  0.21437552  0.36656998    -0.12300
C113        C  0.50682999  0.19027465  0.35062392     0.02400
C114        C  0.51422105  0.19510068  0.32134972    -0.11700
H115        H  0.51928904  0.26736036  0.31347006     0.08000
H116        H  0.50076733  0.21162421  0.38932199     0.05500
H117        H  0.51530855  0.17668172  0.30871368     0.05400
C118        C  0.12458914  0.30075561  0.51537926     0.79500
N119        N  0.15683165  0.31770461  0.51372386    -0.78800
C120        C  0.17353771  0.30230903  0.51324508     0.81900
N121        N  0.15770630  0.26960459  0.51328760    -0.78800
C122        C  0.12544172  0.25254221  0.51486383     0.82000
N123        N  0.10908272  0.26817388  0.51546456    -0.80500
O124        O  0.47987578  0.40634372  0.43092798    -0.86100
O125        O  0.03896215  0.45022414  0.42580170    -0.83100
C126        C  0.04338584  0.46641932  0.44863091     0.97400
O127        O  0.04837490  0.45700639  0.47185126    -0.83200
O128        O  0.04472952  0.41344907  0.51247016    -0.85800
C129        C  0.01730418  0.39806604  0.52348671     1.01900
O130        O  0.49136455  0.38650367  0.50865303    -0.78600
O131        O  0.45727306  0.36330613  0.45796645    -0.78800
C132        C  0.45575806  0.38441557  0.44351636     1.01900
O133        O  0.49702370  0.36191549  0.40730963    -0.86100
O134        O  0.05273843  0.40067667  0.40630137    -0.83100
C135        C  0.08056522  0.42042805  0.41442936     0.97400
O136        O  0.08489825  0.43882364  0.43555324    -0.83200
O137        O  0.07368836  0.39176223  0.47343296    -0.85800
C138        C  0.05778430  0.36482092  0.48531241     1.01900
O139        O  0.02835306  0.35245873  0.49097920    -0.78600
O140        O  0.49601047  0.33485796  0.44457139    -0.78700
C141        C  0.49553204  0.33745849  0.41805460     1.01800
Cr142      Cr  0.01551464  0.40208812  0.42069903     1.93700
Cr143      Cr  0.05989606  0.42333553  0.47209966     1.93200
Cr144      Cr  0.49506559  0.36319571  0.47484404     1.39100
O145        O  0.02295482  0.39473378  0.45582991    -1.23800
O146        O  0.02183816  0.49649253  0.43185482    -0.86100
O147        O  0.47496913  0.51262934  0.42331119    -0.83100
C148        C  0.45658119  0.50267817  0.44491321     0.97400
O149        O  0.46287048  0.01543898  0.46705082    -0.83200
O150        O  0.50320794  0.05778483  0.50858741    -0.85800
C151        C  0.01812056  0.04469173  0.51980533     1.01900
O152        O  0.03242012  0.03318274  0.50613874    -0.78600
O153        O  0.06149728  0.02011144  0.46144885    -0.78800
C154        C  0.04223144  0.49606721  0.44770075     1.01900
O155        O  0.07032105  0.05915054  0.40746640    -0.86100
O156        O  0.52072166  0.07291934  0.40261602    -0.83100
C157        C  0.50111516  0.08158884  0.40825726     0.97400
O158        O  0.48240171  0.06886569  0.42916949    -0.83200
O159        O  0.03250017  0.10796162  0.46636226    -0.85800
C160        C  0.05688366  0.11892919  0.48184284     1.01900
O161        O  0.06590590  0.10045715  0.49128581    -0.78600
O162        O  0.09178186  0.08766723  0.44615894    -0.78700
C163        C  0.09296881  0.08364270  0.41980967     1.01800
Cr164      Cr  0.02343047  0.03588326  0.41717552     1.93700
Cr165      Cr  0.49588280  0.06122217  0.46729347     1.93200
Cr166      Cr  0.06031515  0.05935501  0.47436097     1.39100
O167        O  0.02781801  0.05189193  0.45237888    -1.23800
O168        O  0.41603988  0.45652990  0.42001196    -0.86100
O169        O  0.42659990  0.40729100  0.42787034    -0.83100
C170        C  0.42583151  0.38453468  0.44119637     0.97400
O171        O  0.40013034  0.36257383  0.45224000    -0.83200
O172        O  0.38825697  0.38845938  0.50054549    -0.85800
C173        C  0.37936644  0.40399341  0.51604572     1.01900
O174        O  0.36690023  0.41858264  0.50504234    -0.78600
O175        O  0.40883348  0.46220025  0.46563827    -0.78800
C176        C  0.42562221  0.47231744  0.44336157     1.01900
O177        O  0.35294335  0.40894565  0.39767958    -0.86100
O178        O  0.36663693  0.36164748  0.40055012    -0.83100
C179        C  0.34029714  0.33900297  0.40987623     0.97400
O180        O  0.33376596  0.33786625  0.43595219    -0.83200
O181        O  0.32264267  0.35968358  0.48510118    -0.85800
C182        C  0.30538827  0.37098908  0.47804004     1.01900
O183        O  0.31725085  0.39693750  0.46447186    -0.78600
O184        O  0.35626335  0.44535343  0.42781638    -0.78700
C185        C  0.34447267  0.42843011  0.40548379     1.01800
Cr186      Cr  0.38935437  0.40815003  0.41408002     1.93700
Cr187      Cr  0.36226825  0.36486432  0.46683322     1.93200
Cr188      Cr  0.36327411  0.42888487  0.46452935     1.39100
O189        O  0.37201875  0.40068783  0.44866552    -1.23800
C190        C  0.19829853  0.21576474  0.30449242     0.02400
C191        C  0.22778409  0.24012936  0.31571647    -0.13800
C192        C  0.23672560  0.23800724  0.34353629    -0.00100
C193        C  0.21732784  0.21013072  0.35929262    -0.12300
C194        C  0.18815725  0.18523931  0.34834767     0.02400
C195        C  0.17860852  0.18861859  0.32114149    -0.11700
H196        H  0.24317228  0.26132169  0.30332657     0.08000
H197        H  0.22437508  0.20854136  0.38073978     0.05500
H198        H  0.15531516  0.17054546  0.31323561     0.05400
C199        C  0.36594883  0.03979060  0.97176589     0.02400
C200        C  0.34301765  0.01441598  0.98832450    -0.13800
C201        C  0.34905030  0.01251713  0.01720133    -0.00100
C202        C  0.37741743  0.03690695  0.02969356    -0.12300
C203        C  0.40056834  0.06258545  0.01345582     0.02400
C204        C  0.39500005  0.06297049  0.98423318    -0.11700
H205        H  0.31772238  0.50009190  0.98167420     0.08000
H206        H  0.38101947  0.03615553  0.05235171     0.05500
H207        H  0.41308910  0.08177334  0.97107503     0.05400
C208        C  0.35795753  0.23071764  0.97583087     0.02400
C209        C  0.38658865  0.23663914  0.98807689    -0.13800
C210        C  0.39371027  0.24690733  0.01663702    -0.00100
C211        C  0.37303342  0.25334932  0.03246996    -0.12300
C212        C  0.34384432  0.24655339  0.02079347     0.02400
C213        C  0.33600554  0.23397549  0.99295083    -0.11700
H214        H  0.40341215  0.23323921  0.97549984     0.08000
H215        H  0.37921269  0.26262678  0.05410403     0.05500
H216        H  0.31296660  0.22749788  0.98432993     0.05400
C217        C  0.28595733  0.13389511  0.18681928     0.79500
N218        N  0.26881145  0.10117416  0.18716297    -0.78800
C219        C  0.28348998  0.08382643  0.18582249     0.81900
N220        N  0.31568352  0.09926012  0.18377544    -0.78800
C221        C  0.33317413  0.13195425  0.18380346     0.82000
N222        N  0.31808879  0.14895712  0.18474367    -0.80500
O223        O  0.07605956  0.28342314  0.08678844    -0.86100
O224        O  0.08808586  0.23499459  0.09331940    -0.83100
C225        C  0.08898253  0.21376459  0.10774666     0.97400
O226        O  0.06494676  0.19304338  0.12171022    -0.83200
O227        O  0.04644845  0.21642080  0.16872777    -0.85800
C228        C  0.03438376  0.23027911  0.18249403     1.01900
O229        O  0.02194602  0.24331258  0.16913537    -0.78600
O230        O  0.06657803  0.28783321  0.13214934    -0.78800
C231        C  0.08424552  0.29883927  0.11046925     1.01900
O232        O  0.01343800  0.23460095  0.06236193    -0.86100
O233        O  0.02966460  0.18925567  0.06574921    -0.83100
C234        C  0.00650874  0.16391474  0.07593614     0.97400
O235        O  0.99980047  0.16185696  0.10201321    -0.83200
O236        O  0.48049349  0.18346212  0.15044937    -0.85800
C237        C  0.46290542  0.19433324  0.14294582     1.00400
O238        O  0.47444244  0.22029862  0.12939790    -0.78600
O239        O  0.01700837  0.27131528  0.09170763    -0.78700
C240        C  0.00543748  0.25466152  0.06934671     1.01800
Cr241      Cr  0.05045462  0.23502195  0.07971484     1.93700
Cr242      Cr  0.02437143  0.19169518  0.13336214     1.93200
Cr243      Cr  0.02153623  0.25370529  0.12859770     1.39100
O244        O  0.03248113  0.22658607  0.11402777    -1.23800
O245        O  0.18173141  0.33101662  0.10012093    -0.86100
O246        O  0.13232327  0.34158147  0.09120534    -0.83100
C247        C  0.11444663  0.32988615  0.11289231     0.97400
O248        O  0.12228358  0.34461446  0.13665292    -0.83200
O249        O  0.16187051  0.38420556  0.18009425    -0.85800
C250        C  0.17478161  0.37074881  0.19204312     1.01900
O251        O  0.19181966  0.36309568  0.17744354    -0.78600
O252        O  0.22174087  0.35512114  0.13036482    -0.78800
C253        C  0.20292565  0.33090355  0.11516946     1.01900
O254        O  0.22668727  0.39383202  0.07955928    -0.86100
O255        O  0.17932815  0.40761583  0.07478299    -0.83100
C256        C  0.15884965  0.41472441  0.08240635     0.97400
O257        O  0.14123769  0.40093330  0.10355532    -0.83200
O258        O  0.18622250  0.43734208  0.14425935    -0.85800
C259        C  0.21057600  0.44827393  0.15987678     1.01900
O260        O  0.22174593  0.43074050  0.16649649    -0.78600
O261        O  0.24810558  0.42324038  0.11793688    -0.78700
C262        C  0.24871102  0.41898823  0.09143455     1.01800
Cr263      Cr  0.18024997  0.36960446  0.08928723     1.93700
Cr264      Cr  0.15502321  0.39088222  0.13993576     1.93200
Cr265      Cr  0.21815523  0.39209326  0.14611207     1.39100
O266        O  0.18448250  0.38377733  0.12521163    -1.23800
O267        O  0.14231840  0.23684560  0.09476753    -0.86100
O268        O  0.20241780  0.28735246  0.09108346    -0.83100
C269        C  0.20573541  0.30198889  0.11462530     0.97400
O270        O  0.21116270  0.29183735  0.13726601    -0.83200
O271        O  0.20746961  0.24663131  0.17626529    -0.85800
C272        C  0.17976062  0.22937380  0.18622149     1.01900
O273        O  0.15640859  0.21386629  0.16972910    -0.78600
O274        O  0.12187115  0.19247238  0.11990109    -0.78800
C275        C  0.11921624  0.21416776  0.10771873     1.01900
O276        O  0.16049846  0.19477111  0.06694749    -0.86100
O277        O  0.22193691  0.24351342  0.06904357    -0.83100
C278        C  0.24896088  0.26274125  0.07912180     0.97400
O279        O  0.25161960  0.27814843  0.10192301    -0.83200
O280        O  0.24032615  0.22895054  0.13786002    -0.85800
C281        C  0.22441542  0.20106437  0.14821410     1.01900
O282        O  0.19460166  0.18751283  0.15185145    -0.78600
O283        O  0.16250071  0.16709042  0.10229100    -0.78700
C284        C  0.15990439  0.17006569  0.07610428     1.01800
Cr285      Cr  0.18235073  0.23988968  0.08333042     1.93700
Cr286      Cr  0.22454698  0.25930710  0.13674893     1.93200
Cr287      Cr  0.16101318  0.19342793  0.13438611     1.39100
O288        O  0.18902833  0.23069024  0.11828282    -1.23800
C289        C  0.17744732  0.04711470  0.97192203     0.02400
C290        C  0.17301352  0.02087386  0.98796403    -0.13800
C291        C  0.15861185  0.01457723  0.01517306    -0.00100
C292        C  0.15129850  0.03727161  0.02699133    -0.12300
C293        C  0.15758795  0.06497983  0.01191957     0.02400
C294        C  0.16984993  0.06902893  0.98405109    -0.11700
H295        H  0.18449495  0.50880091  0.98051840     0.08000
H296        H  0.14150447  0.03407156  0.04825138     0.05500
H297        H  0.17386856  0.08959049  0.97178908     0.05400
C298        C  0.15503620  0.09168702  0.02603892    -0.06900
C299        C  0.18095437  0.12336045  0.02323375    -0.18000
C300        C  0.18172686  0.14947528  0.03737882     0.10300
C301        C  0.15681965  0.14427863  0.05623297    -0.06800
C302        C  0.13052910  0.11280248  0.05878366    -0.18000
C303        C  0.12882774  0.08677369  0.04318364     0.10400
S304        S  0.21634971  0.18854861  0.03183773    -0.33000
S305        S  0.09214709  0.04842968  0.04529395    -0.33000
H306        H  0.09435686  0.03784674  0.01768874     0.28400
H307        H  0.19829574  0.20265154  0.02503366     0.28400
H308        H  0.20134345  0.12787841  0.01031830     0.19000
H309        H  0.11106605  0.10850366  0.07291983     0.19000
C310        C  0.15543197  0.43898022  0.06641461    -0.06900
C311        C  0.15210791  0.43580399  0.03677883    -0.18000
C312        C  0.15047852  0.45902852  0.02060807     0.10300
C313        C  0.15733387  0.48888154  0.03343869    -0.06800
C314        C  0.16036831  0.49158881  0.06333845    -0.18000
C315        C  0.15693755  0.46616201  0.07982975     0.10400
S316        S  0.13551200  0.44681374  0.98495432    -0.33000
S317        S  0.15389643  0.46987113  0.11774375    -0.33000
H318        H  0.12532620  0.44002081  0.12004646     0.28400
H319        H  0.11760713  0.46214142  0.98620431     0.28400
H320        H  0.14884836  0.41410501  0.02635824     0.19000
H321        H  0.16068009  0.01007360  0.07305741     0.19000
C322        C  0.24051234  0.18412174  0.15777001    -0.06900
C323        C  0.27017683  0.20162964  0.17139786    -0.18000
C324        C  0.28468391  0.18594466  0.18329511     0.10300
C325        C  0.26957952  0.15188462  0.18090895    -0.06800
C326        C  0.23943745  0.13459860  0.16803003    -0.18000
C327        C  0.22524645  0.15020465  0.15600602     0.10400
S328        S  0.32165838  0.21076497  0.20205380    -0.33000
S329        S  0.18897889  0.12547213  0.13636329    -0.33000
H330        H  0.19998631  0.14577507  0.11259747     0.28400
H331        H  0.31531746  0.18777257  0.22305514     0.28400
H332        H  0.28167457  0.22760867  0.17357740     0.19000
H333        H  0.22745946  0.10864056  0.16548093     0.19000
C334        C  0.22691671  0.48226543  0.16953772    -0.06900
C335        C  0.22883939  0.00500540  0.14823274    -0.18000
C336        C  0.24624578  0.03795525  0.15412788     0.10300
C337        C  0.26459161  0.04924891  0.17924971    -0.06800
C338        C  0.26522397  0.02722343  0.19780628    -0.18000
C339        C  0.24267895  0.49305695  0.19613228     0.10400
S340        S  0.24535648  0.06429479  0.12780195    -0.33000
S341        S  0.23902816  0.46585615  0.22371545    -0.33000
H342        H  0.20705554  0.44283048  0.21758345     0.28400
H343        H  0.27747315  0.08880857  0.13086266     0.28400
H344        H  0.21626653  0.99694885  0.12819296     0.19000
H345        H  0.27915538  0.03591438  0.21720053     0.19000
C346        C  0.36702954  0.14855459  0.17558327    -0.06900
C347        C  0.37744533  0.17329218  0.15568716    -0.18000
C348        C  0.40764478  0.18733048  0.14349733     0.10300
C349        C  0.42910655  0.17765894  0.15226064    -0.06800
C350        C  0.41866024  0.15294879  0.17242892    -0.18000
C351        C  0.38799727  0.13836047  0.18413646     0.10400
S352        S  0.41588766  0.21570328  0.11558405    -0.33000
S353        S  0.37758060  0.10772388  0.21044130    -0.33000
H354        H  0.35768169  0.11520329  0.22653203     0.28400
H355        H  0.42638849  0.19998059  0.09689059     0.28400
H356        H  0.36124876  0.18065442  0.14823849     0.19000
H357        H  0.43466892  0.14530190  0.17972093     0.19000
C358        C  0.32143950  0.25295530  0.03711323    -0.06900
C359        C  0.30923577  0.27032920  0.02394075    -0.18000
C360        C  0.28677391  0.27572069  0.03769494     0.10300
C361        C  0.27703111  0.26450407  0.06563617    -0.06800
C362        C  0.29013985  0.24838100  0.07922741    -0.18000
C363        C  0.31130545  0.24153919  0.06504546     0.10400
S364        S  0.27081339  0.29614235  0.01825090    -0.33000
S365        S  0.32153296  0.21523218  0.08273830    -0.33000
H366        H  0.32154846  0.19855191  0.05784627     0.28400
H367        H  0.26153224  0.30729120  0.04222326     0.28400
H368        H  0.31684779  0.27929127  0.00255480     0.19000
H369        H  0.28186671  0.23865053  0.10025663     0.19000
C370        C  0.42160924  0.24861575  0.03042277    -0.06900
C371        C  0.44626188  0.27820186  0.04111898    -0.18000
C372        C  0.47325444  0.28057657  0.05401955     0.10300
C373        C  0.47587979  0.25280416  0.05573527    -0.06800
C374        C  0.45132843  0.22342993  0.04440518    -0.18000
C375        C  0.42389291  0.22084871  0.03283985     0.10400
S376        S  0.50453645  0.31932722  0.06715393    -0.33000
S377        S  0.39141686  0.18106754  0.02360955    -0.33000
H378        H  0.36690485  0.18663438  0.03201444     0.28400
H379        H  0.48903505  0.33647902  0.06189309     0.28400
H380        H  0.44431044  0.29941566  0.03921310     0.19000
H381        H  0.45238154  0.20171682  0.04647694     0.19000
C382        C  0.27503822  0.44392536  0.07383007    -0.06900
C383        C  0.28479169  0.43445079  0.04907218    -0.18000
C384        C  0.30885399  0.45725222  0.03134079     0.10300
C385        C  0.32303963  0.49051821  0.03793118    -0.06800
C386        C  0.31351007  0.49993200  0.06269766    -0.18000
C387        C  0.28969822  0.47726928  0.08041380     0.10400
S388        S  0.32105765  0.44225703  0.00128688    -0.33000
S389        S  0.27756512  0.49297147  0.10972240    -0.33000
H390        H  0.24491126  0.47293914  0.10361653     0.28400
H391        H  0.35316672  0.46732367  0.00156705     0.28400
H392        H  0.27394917  0.40905490  0.04370784     0.19000
H393        H  0.31929096  0.02236966  0.05987192     0.19000
C394        C  0.42997969  0.08908424  0.02742329    -0.06900
C395        C  0.44559199  0.08106806  0.04786425    -0.18000
C396        C  0.47153912  0.10489908  0.06352209     0.10300
C397        C  0.48289625  0.13770277  0.05836848    -0.06800
C398        C  0.46900649  0.14582639  0.03662044    -0.18000
C399        C  0.44227803  0.12219935  0.02177669     0.10400
S400        S  0.48914029  0.09200402  0.08977106    -0.33000
S401        S  0.42350480  0.13657361  0.99826915    -0.33000
H402        H  0.39226896  0.11406418  0.00706784     0.28400
H403        H  0.51966796  0.11986244  0.08879781     0.28400
H404        H  0.43723727  0.05597707  0.05203177     0.19000
H405        H  0.47743575  0.17099785  0.03276249     0.19000
C406        C  0.18796800  0.21834553  0.27532755    -0.06900
C407        C  0.17624114  0.19162600  0.25669910    -0.18000
C408        C  0.16974817  0.19382101  0.22804959     0.10300
C409        C  0.17640537  0.22380575  0.21727972    -0.06800
C410        C  0.18640919  0.25004005  0.23618295    -0.18000
C411        C  0.19071222  0.24707043  0.26525138     0.10400
S412        S  0.15495472  0.15861785  0.20509944    -0.33000
S413        S  0.19820828  0.28003595  0.28870455    -0.33000
H414        H  0.18239045  0.26073528  0.31238389     0.28400
H415        H  0.15614722  0.13797485  0.22514082     0.28400
H416        H  0.17325284  0.16925218  0.26438343     0.19000
H417        H  0.19100878  0.27296687  0.22823128     0.19000
C418        C  0.31530459  0.31443415  0.39064050    -0.06900
C419        C  0.28363508  0.30558807  0.39685024    -0.18000
C420        C  0.25809736  0.28218250  0.38078966     0.10300
C421        C  0.26377184  0.26630979  0.35796262    -0.06800
C422        C  0.29543226  0.27592798  0.35074696    -0.18000
C423        C  0.32124267  0.29969992  0.36692058     0.10400
S424        S  0.21866439  0.27342061  0.39080867    -0.33000
S425        S  0.36071643  0.30857153  0.35736698    -0.33000
H426        H  0.37154440  0.31206253  0.38559418     0.28400
H427        H  0.20580416  0.26547589  0.36318155     0.28400
H428        H  0.27863788  0.31724341  0.41443657     0.19000
H429        H  0.29997181  0.26385769  0.33324753     0.19000
C430        C  0.12051192  0.10889376  0.40313383    -0.06900
C431        C  0.12700232  0.10131793  0.37570156    -0.18000
C432        C  0.15000170  0.12534329  0.35781923     0.10300
C433        C  0.16594234  0.15799674  0.36693935    -0.06800
C434        C  0.16015263  0.16537573  0.39452739    -0.18000
C435        C  0.13858937  0.14150853  0.41283118     0.10400
S436        S  0.15954798  0.11391727  0.32393233    -0.33000
S437        S  0.13463021  0.15535150  0.44769610    -0.33000
H438        H  0.14366260  0.13582381  0.46180494     0.28400
H439        H  0.14166379  0.08038589  0.32797125     0.28400
H440        H  0.11384372  0.07653895  0.36817030     0.19000
H441        H  0.17228152  0.19027153  0.40188341     0.19000
C442        C  0.10814176  0.21825188  0.50759231    -0.06900
C443        C  0.09055457  0.20908154  0.48233474    -0.18000
C444        C  0.07399271  0.17704128  0.47310294     0.10300
C445        C  0.07439966  0.15334449  0.49007841    -0.06800
C446        C  0.09221637  0.16273690  0.51549453    -0.18000
C447        C  0.10930630  0.19512583  0.52432055     0.10400
S448        S  0.05421565  0.16765807  0.43892932    -0.33000
S449        S  0.13156873  0.20672296  0.55719137    -0.33000
H450        H  0.12321160  0.17545997  0.56533448     0.28400
H451        H  0.06305156  0.19921610  0.43138100     0.28400
H452        H  0.09046818  0.22743106  0.46947787     0.19000
H453        H  0.09253905  0.14466246  0.52854459     0.19000
C454        C  0.20766208  0.32061473  0.50623332    -0.06900
C455        C  0.21732787  0.34332380  0.48452577    -0.18000
C456        C  0.24871337  0.36001443  0.47483069     0.10300
C457        C  0.27152642  0.35411055  0.48710828    -0.06800
C458        C  0.26166342  0.33112507  0.50885968    -0.18000
C459        C  0.23012860  0.31446449  0.51858962     0.10400
S460        S  0.25712854  0.38686884  0.44562328    -0.33000
S461        S  0.22036428  0.28630252  0.54710733    -0.33000
H462        H  0.19674420  0.29106461  0.55956037     0.28400
H463        H  0.27634660  0.41455669  0.46239653     0.28400
H464        H  0.19999732  0.34753908  0.47437697     0.19000
H465        H  0.27870215  0.32631374  0.51874011     0.19000
C466        C  0.07411141  0.34795095  0.49358090    -0.06900
C467        C  0.10047041  0.36371545  0.51179957    -0.18000
C468        C  0.11652166  0.34837311  0.52067631     0.10300
C469        C  0.10635936  0.31681118  0.51061927    -0.06800
C470        C  0.07960666  0.30102090  0.49273298    -0.18000
C471        C  0.06373733  0.31637583  0.48387229     0.10400
S472        S  0.14898745  0.36991766  0.54539988    -0.33000
S473        S  0.03224323  0.29555968  0.45825206    -0.33000
H474        H  0.04353278  0.32265035  0.44075482     0.28400
H475        H  0.14345954  0.34233360  0.56001743     0.28400
H476        H  0.10823596  0.38791608  0.51953134     0.19000
H477        H  0.07196880  0.27712940  0.48424381     0.19000
C478        C  0.50315182  0.16095357  0.36446585    -0.06900
C479        C  0.03270039  0.15659362  0.35942100    -0.18000
C480        C  0.03235618  0.13045325  0.37226343     0.10300
C481        C  0.50107232  0.10746760  0.39123041    -0.06800
C482        C  0.47750282  0.11541436  0.39677118    -0.18000
C483        C  0.47796087  0.14141595  0.38339009     0.10400
S484        S  0.06656490  0.12588224  0.36652948    -0.33000
S485        S  0.44514735  0.14756010  0.39084385    -0.33000
H486        H  0.44465010  0.15901510  0.36362535     0.28400
H487        H  0.08410973  0.15230403  0.34851332     0.28400
H488        H  0.05284623  0.17283274  0.34633161     0.19000
H489        H  0.45846260  0.10127947  0.41172413     0.19000
C490        C  0.50623369  0.26705170  0.36988521    -0.06900
C491        C  0.47825294  0.25728024  0.38590092    -0.18000
C492        C  0.47315231  0.27977199  0.40071913     0.10300
C493        C  0.49633807  0.31291434  0.39942830    -0.06800
C494        C  0.01549237  0.31972916  0.37714370    -0.18000
C495        C  0.02272695  0.29882536  0.36244526     0.10400
S496        S  0.43648211  0.26482446  0.42051569    -0.33000
S497        S  0.05846200  0.31741897  0.34093484    -0.33000
H498        H  0.06745264  0.29488663  0.34745352     0.28400
H499        H  0.43499373  0.29304680  0.41879730     0.28400
H500        H  0.46002159  0.23194504  0.38656971     0.19000
H501        H  0.03095905  0.34548134  0.37440376     0.19000
C502        C  0.52557323  0.22711456  0.27680895    -0.06900
C503        C  0.50343334  0.22977455  0.26036328    -0.18000
C504        C  0.50558174  0.23117014  0.23061569     0.10300
C505        C  0.03157906  0.22911410  0.21417949    -0.06800
C506        C  0.05388933  0.22640868  0.23068332    -0.18000
C507        C  0.05159449  0.22505957  0.26059946     0.10400
S508        S  0.47389796  0.23189139  0.21153487    -0.33000
S509        S  0.08282444  0.22401599  0.27976884    -0.33000
H510        H  0.08153773  0.24080456  0.30406813     0.28400
H511        H  0.45522491  0.23041405  0.23515941     0.28400
H512        H  0.48367261  0.22978236  0.27104836     0.19000
H513        H  0.07359619  0.22599523  0.22027565     0.19000
C514        C  0.31854922  0.42875345  0.38981845    -0.06900
C515        C  0.29316338  0.39873862  0.38070787    -0.18000
C516        C  0.26539737  0.39560907  0.36960205     0.10300
C517        C  0.26329164  0.42337294  0.36571313    -0.06800
C518        C  0.28886556  0.45363506  0.37413732    -0.18000
C519        C  0.31650723  0.45662751  0.38612554     0.10400
S520        S  0.23283166  0.35510019  0.36280311    -0.33000
S521        S  0.34865253  0.49655657  0.39516805    -0.33000
H522        H  0.37316515  0.49019484  0.38901216     0.28400
H523        H  0.20818999  0.36119003  0.36888108     0.28400
H524        H  0.29403231  0.37705078  0.38403201     0.19000
H525        H  0.28741486  0.47501416  0.37106863     0.19000
C526        C  0.10747710  0.41998695  0.40051204    -0.06900
C527        C  0.10563743  0.39007334  0.39808288    -0.18000
C528        C  0.13063357  0.38753660  0.38629824     0.10300
C529        C  0.15772716  0.41526610  0.37567280    -0.06800
C530        C  0.15989032  0.44532763  0.37842159    -0.18000
C531        C  0.13502526  0.44798942  0.39074653     0.10400
S532        S  0.12688849  0.34841288  0.38574277    -0.33000
S533        S  0.13908190  0.48725182  0.39198759    -0.33000
H534        H  0.10647202  0.47615421  0.38861263     0.28400
H535        H  0.15963937  0.35998165  0.38845323     0.28400
H536        H  0.08483123  0.36856529  0.40610347     0.19000
H537        H  0.18053118  0.46661953  0.36993269     0.19000
C538        C  0.17423017  0.36974991  0.22375950    -0.06900
C539        C  0.19613969  0.36424965  0.23777473    -0.18000
C540        C  0.20258286  0.37126102  0.26689871     0.10300
C541        C  0.18841851  0.38625039  0.28257389    -0.06800
C542        C  0.16529230  0.39011619  0.26858225    -0.18000
C543        C  0.15681060  0.38051764  0.24017363     0.10400
S544        S  0.22823585  0.35922246  0.28234059    -0.33000
S545        S  0.12375429  0.38264663  0.22557179    -0.33000
H546        H  0.11662957  0.39528693  0.24988239     0.28400
H547        H  0.20901319  0.34728692  0.30678720     0.28400
H548        H  0.20897831  0.35503021  0.22584624     0.19000
H549        H  0.15415337  0.40162405  0.27955612     0.19000
C550        C  0.35705091  0.38932250  0.60499291    -0.06900
C551        C  0.38142860  0.41980602  0.59575548    -0.18000
C552        C  0.39096742  0.42521895  0.56700918     0.10300
C553        C  0.37662800  0.39943132  0.54712771    -0.06800
C554        C  0.35299646  0.36890785  0.55645409    -0.18000
C555        C  0.34229030  0.36383563  0.58467967     0.10400
S556        S  0.42114691  0.46545408  0.55692930    -0.33000
S557        S  0.30754590  0.32517716  0.59246369    -0.33000
H558        H  0.29434876  0.33725915  0.61235874     0.28400
H559        H  0.43097556  0.45652536  0.53189127     0.28400
H560        H  0.39305562  0.43957273  0.61099936     0.19000
H561        H  0.34082857  0.34937351  0.54103988     0.19000
C562        C  0.18972654  0.05151201  0.94219061    -0.06900
C563        C  0.21772034  0.08029426  0.93461993    -0.18000
C564        C  0.22862804  0.08609494  0.90622970     0.10300
C565        C  0.21166707  0.06231034  0.88512062    -0.06800
C566        C  0.18461295  0.03313661  0.89300572    -0.18000
C567        C  0.17279700  0.02795748  0.92089805     0.10400
S568        S  0.26374046  0.12425647  0.89817738    -0.33000
S569        S  0.13525828  0.49259613  0.93008553    -0.33000
H570        H  0.13134692  0.47615609  0.90400520     0.28400
H571        H  0.27153584  0.11405917  0.87269048     0.28400
H572        H  0.23072345  0.09862430  0.95081198     0.19000
H573        H  0.17125737  0.01517728  0.87670846     0.19000
C574        C  0.34302106  0.20737722  0.88576441    -0.06900
C575        C  0.33449268  0.22851683  0.89849864    -0.18000
C576        C  0.33972048  0.23697927  0.92726687     0.10300
C577        C  0.35139808  0.22203001  0.94504685    -0.06800
C578        C  0.35753316  0.19885024  0.93293628    -0.18000
C579        C  0.35360252  0.19143947  0.90361939     0.10400
S580        S  0.33450167  0.26991946  0.93861219    -0.33000
S581        S  0.36263329  0.16169699  0.89060587    -0.33000
H582        H  0.33738031  0.14777233  0.87092563     0.28400
H583        H  0.36178835  0.28488412  0.95597869     0.28400
H584        H  0.32630851  0.24114605  0.88551430     0.19000
H585        H  0.36576634  0.18660258  0.94637766     0.19000
C586        C  0.33589525  0.27402141  0.72309956    -0.06900
C587        C  0.30890587  0.27729499  0.72398074    -0.18000
C588        C  0.30787073  0.30153241  0.70890482     0.10300
C589        C  0.33486490  0.32410751  0.69323259    -0.06800
C590        C  0.36168533  0.32073837  0.69203658    -0.18000
C591        C  0.36259373  0.29607504  0.70649990     0.10400
S592        S  0.27099302  0.30158430  0.70977954    -0.33000
S593        S  0.39900432  0.29490936  0.70459465    -0.33000
H594        H  0.41417254  0.31772534  0.68296274     0.28400
H595        H  0.27387472  0.31342362  0.68205535     0.28400
H596        H  0.28815571  0.26052043  0.73621694     0.19000
H597        H  0.38246682  0.33822962  0.68028193     0.19000
C598        C  0.35542316  0.06058448  0.88527636    -0.06900
C599        C  0.38005368  0.05525911  0.89312964    -0.18000
C600        C  0.38219318  0.04580919  0.92035872     0.10300
C601        C  0.36017475  0.04296566  0.94139711    -0.06800
C602        C  0.33478789  0.04727915  0.93373003    -0.18000
C603        C  0.33204196  0.05586705  0.90578993     0.10400
S604        S  0.41336823  0.03706640  0.92663150    -0.33000
S605        S  0.29934473  0.06180400  0.89816302    -0.33000
H606        H  0.31526275  0.08496729  0.87696588     0.28400
H607        H  0.39672837  0.01386022  0.94767752     0.28400
H608        H  0.39754509  0.05738212  0.87753454     0.19000
H609        H  0.31777094  0.04518617  0.94983996     0.19000
C610        C  0.33056726  0.42535786  0.69759488    -0.06900
C611        C  0.35102548  0.43884134  0.72097497    -0.18000
C612        C  0.35110163  0.46274491  0.73812879     0.10300
C613        C  0.32942417  0.47327354  0.73270725    -0.06800
C614        C  0.30913984  0.46017827  0.70897445    -0.18000
C615        C  0.30926868  0.43616700  0.69154877     0.10400
S616        S  0.38134977  0.48034490  0.76526110    -0.33000
S617        S  0.28097384  0.41955827  0.66272381    -0.33000
H618        H  0.27714261  0.38867021  0.66296792     0.28400
H619        H  0.38835241  0.01231895  0.75770878     0.28400
H620        H  0.36798277  0.43135136  0.72541200     0.19000
H621        H  0.29256894  0.46809467  0.70438657     0.19000
C622        C  0.43900657  0.38451805  0.84523780    -0.06900
C623        C  0.41514633  0.37440846  0.82455519    -0.18000
C624        C  0.39781594  0.34239053  0.81486243     0.10300
C625        C  0.40398812  0.31928144  0.82669893    -0.06800
C626        C  0.42760094  0.32949345  0.84791346    -0.18000
C627        C  0.44518874  0.36178268  0.85720384     0.10400
S628        S  0.36877086  0.33249242  0.78691358    -0.33000
S629        S  0.47444527  0.37338963  0.88507617    -0.33000
H630        H  0.46934669  0.34247136  0.89004801     0.28400
H631        H  0.37606531  0.36401952  0.78109996     0.28400
H632        H  0.41066500  0.39206404  0.81531108     0.19000
H633        H  0.43240295  0.31212384  0.85726692     0.19000
C634        C  0.04153000  0.48520767  0.85129943    -0.06900
C635        C  0.05730886  0.01733209  0.84298072    -0.18000
C636        C  0.08930166  0.03489650  0.83452438     0.10300
C637        C  0.10695110  0.01915905  0.83245078    -0.06800
C638        C  0.09327287  0.48963152  0.84853614    -0.18000
C639        C  0.06178706  0.47361637  0.85844637     0.10400
S640        S  0.10690011  0.07738426  0.82709342    -0.33000
S641        S  0.04938864  0.43924165  0.88080577    -0.33000
H642        H  0.52895199  0.45474157  0.90006383     0.28400
H643        H  0.07954213  0.07949148  0.83177976     0.28400
H644        H  0.04377965  0.02935357  0.84328221     0.19000
H645        H  0.10818297  0.47986585  0.85368529     0.19000
C646        C  0.44366905  0.48747241  0.84932849    -0.06900
C647        C  0.45865552  0.01338876  0.83018736    -0.18000
C648        C  0.44445424  0.03029091  0.82107058     0.10300
C649        C  0.41268418  0.02001894  0.82944145    -0.06800
C650        C  0.39775523  0.49415209  0.84940008    -0.18000
C651        C  0.41261174  0.47775022  0.85892389     0.10400
S652        S  0.46836835  0.06387858  0.79806766    -0.33000
S653        S  0.39202079  0.44509608  0.88374598    -0.33000
H654        H  0.36395577  0.44635033  0.88613030     0.28400
H655        H  0.46646428  0.08617886  0.81647528     0.28400
H656        H  0.48237977  0.02070830  0.82243736     0.19000
H657        H  0.37376612  0.48633525  0.85656910     0.19000
C658        C  0.49730035  0.32273245  0.70312077    -0.06900
C659        C  0.49295384  0.33002308  0.73123324    -0.18000
C660        C  0.47040898  0.30646059  0.74931319     0.10300
C661        C  0.45066815  0.27435992  0.73878535    -0.06800
C662        C  0.45573764  0.26695487  0.71077300    -0.18000
C663        C  0.47908398  0.29054806  0.69309663     0.10400
S664        S  0.46654373  0.31918759  0.78495841    -0.33000
S665        S  0.48479018  0.27790081  0.65824402    -0.33000
H666        H  0.01662607  0.29682427  0.65330973     0.28400
H667        H  0.49463582  0.34967802  0.78501874     0.28400
H668        H  0.50674876  0.35476611  0.73879601     0.19000
H669        H  0.44132076  0.24257668  0.70246117     0.19000
C670        C  0.10033618  0.42305901  0.69637895    -0.06900
C671        C  0.09151288  0.43707899  0.71823239    -0.18000
C672        C  0.11407642  0.46136326  0.73588053     0.10300
C673        C  0.14677579  0.47180831  0.73230868    -0.06800
C674        C  0.15588638  0.45853901  0.70979117    -0.18000
C675        C  0.13301471  0.43412964  0.69183568     0.10400
S676        S  0.09914374  0.47853090  0.76178494    -0.33000
S677        S  0.14726052  0.41798034  0.66430423    -0.33000
H678        H  0.11800191  0.39054625  0.65700733     0.28400
H679        H  0.12679116  0.01636340  0.75986830     0.28400
H680        H  0.06652349  0.42911178  0.72142318     0.19000
H681        H  0.18088247  0.46664996  0.70661289     0.19000
C682        C  0.02638303  0.38621135  0.61236919    -0.06900
C683        C  0.01054262  0.35927690  0.59400115    -0.18000
C684        C  0.00401812  0.36234385  0.56564458     0.10300
C685        C  0.01499149  0.39332859  0.55462749    -0.06800
C686        C  0.02985988  0.42021000  0.57302874    -0.18000
C687        C  0.03422888  0.41683524  0.60199347     0.10400
S688        S  0.98399579  0.32659635  0.54321930    -0.33000
S689        S  0.04869212  0.45226269  0.62444450    -0.33000
H690        H  0.03300198  0.43540364  0.64926539     0.28400
H691        H  0.98048520  0.30414420  0.56375472     0.28400
H692        H  0.00429303  0.33572516  0.60157958     0.19000
H693        H  0.03836994  0.44403186  0.56470137     0.19000
C694        C  0.14761114  0.08769260  0.72850394    -0.06900
C695        C  0.12575530  0.05906864  0.71400998    -0.18000
C696        C  0.09848735  0.05543398  0.70108065     0.10300
C697        C  0.09312210  0.08147687  0.70124534    -0.06800
C698        C  0.11489679  0.11027273  0.71546934    -0.18000
C699        C  0.14208019  0.11375885  0.72889521     0.10400
S700        S  0.07074731  0.01631269  0.68594998    -0.33000
S701        S  0.16935665  0.15249237  0.74476429    -0.33000
H702        H  0.19693381  0.15276488  0.73530618     0.28400
H703        H  0.04318159  0.01771545  0.69176108     0.28400
H704        H  0.12922336  0.03865696  0.71353125     0.19000
H705        H  0.11115121  0.13052014  0.71541940     0.19000
C706        C  0.49323572  0.08643941  0.70105495    -0.06900
C707        C  0.46166007  0.06362807  0.69368872    -0.18000
C708        C  0.43568249  0.06435036  0.70568285     0.10300
C709        C  0.44102812  0.08792533  0.72702178    -0.06800
C710        C  0.47275670  0.11087132  0.73438566    -0.18000
C711        C  0.99754504  0.11063122  0.71895748     0.10400
S712        S  0.39631325  0.03487291  0.69262713    -0.33000
S713        S  0.03679949  0.14451962  0.72629410    -0.33000
H714        H  0.04904059  0.14559991  0.69877550     0.28400
H715        H  0.40466484  0.01490729  0.67741768     0.28400
H716        H  0.45730672  0.04497889  0.67815028     0.19000
H717        H  0.47747811  0.12928093  0.75033982     0.19000
C718        C  0.03406798  0.06459132  0.60975829    -0.06900
C719        C  0.02771065  0.03447210  0.59901526    -0.18000
C720        C  0.02089467  0.02624772  0.56996801     0.10300
C721        C  0.02081770  0.04873503  0.55121054    -0.06800
C722        C  0.02718767  0.07873008  0.56220980    -0.18000
C723        C  0.03417668  0.08701424  0.59089015     0.10400
S724        S  0.51062353  0.48873676  0.56304119    -0.33000
S725        S  0.04400750  0.12710243  0.60180502    -0.33000
H726        H  0.06533732  0.13085321  0.62347398     0.28400
H727        H  0.49127064  0.48604967  0.54000460     0.28400
H728        H  0.02706104  0.01692289  0.61349434     0.19000
H729        H  0.02810419  0.09668079  0.54806157     0.19000
C730        C  0.03313801  0.56155253  0.64322862     0.02400
C731        C  0.01124634  0.56686860  0.65816623    -0.13800
C732        C  0.01411499  0.57307101  0.68769478    -0.00100
C733        C  0.03940215  0.57370988  0.70225142    -0.12300
C734        C  0.06203815  0.56927125  0.68737342     0.02400
C735        C  0.05865509  0.56300364  0.65782938    -0.11700
H736        H  0.99199327  0.56646204  0.64655582     0.08000
H737        H  0.04142415  0.57740671  0.72515367     0.05500
H738        H  0.07627859  0.56008335  0.64610378     0.05400
C739        C  0.03125424  0.88645621  0.64145460     0.02400
C740        C  0.01010041  0.85919364  0.65749659    -0.13800
C741        C  0.01967813  0.85238695  0.68323029    -0.00100
C742        C  0.05008147  0.87439911  0.69393814    -0.12300
C743        C  0.07064407  0.90276298  0.67942349     0.02400
C744        C  0.06174411  0.90813561  0.65270795    -0.11700
H745        H  0.48687392  0.83900612  0.64873271     0.08000
H746        H  0.05724867  0.87036853  0.71449318     0.05500
H747        H  0.07849393  0.92940343  0.64107493     0.05400
C748        C  0.45779136  0.96770031  0.85321199     0.79500
N749        N  0.49000161  0.98296066  0.85390244    -0.78800
C750        C  0.00689218  0.96643272  0.85375636     0.81900
N751        N  0.48790839  0.93355443  0.84968082    -0.78800
C752        C  0.45551640  0.91789401  0.84931543     0.82000
N753        N  0.44067391  0.93515635  0.85046718    -0.80500
O754        O  0.30973300  0.56562453  0.76602736    -0.86100
O755        O  0.36925495  0.61493810  0.75724717    -0.83100
C756        C  0.37475824  0.63194792  0.77981441     0.97400
O757        O  0.38201090  0.62389865  0.80262550    -0.83200
O758        O  0.38004313  0.58204462  0.84341428    -0.85800
C759        C  0.35318163  0.56611875  0.85545381     1.01900
O760        O  0.32829091  0.55057564  0.84066453    -0.78600
O761        O  0.29041836  0.52245801  0.79262449    -0.78800
C762        C  0.28709954  0.54343092  0.77971855     1.01900
O763        O  0.32441355  0.51963052  0.74130772    -0.86100
O764        O  0.38579579  0.56713726  0.73771490    -0.83100
C765        C  0.41389668  0.58724226  0.74465841     0.97400
O766        O  0.41858688  0.60566480  0.76590332    -0.83200
O767        O  0.40884978  0.55982479  0.80474668    -0.85800
C768        C  0.39514092  0.53490347  0.81974637     1.01900
O769        O  0.36586274  0.52240144  0.82617527    -0.78600
O770        O  0.33159751  0.99842158  0.77716416    -0.78700
C771        C  0.32833833  0.49787266  0.75148918     1.01800
Cr772      Cr  0.34807059  0.56654632  0.75314987     1.93700
Cr773      Cr  0.39442054  0.59091606  0.80302479     1.93200
Cr774      Cr  0.33089001  0.52588177  0.80758416     1.39100
O775        O  0.35736127  0.56115105  0.78819957    -1.23800
O776        O  0.35211908  0.66134468  0.76313966    -0.86100
O777        O  0.30277500  0.67167829  0.75439299    -0.83100
C778        C  0.28575863  0.66256852  0.77693375     0.97400
O779        O  0.29414100  0.68005737  0.79911937    -0.83200
O780        O  0.33407062  0.72267675  0.84007323    -0.85800
C781        C  0.34576189  0.70878665  0.85345414     1.01900
O782        O  0.36126283  0.69844832  0.83999556    -0.78600
O783        O  0.39038222  0.68526380  0.79503626    -0.78800
C784        C  0.37242518  0.66115151  0.77928425     1.01900
O785        O  0.39743491  0.72354071  0.74044333    -0.86100
O786        O  0.35090795  0.73667091  0.73400899    -0.83100
C787        C  0.33132528  0.74529687  0.74001291     0.97400
O788        O  0.31294980  0.73260027  0.76101065    -0.83200
O789        O  0.35931995  0.77208104  0.79975096    -0.85800
C790        C  0.38372967  0.78348450  0.81530603     1.01900
O791        O  0.39340529  0.76532208  0.82426530    -0.78600
O792        O  0.41952431  0.75246437  0.77892501    -0.78700
C793        C  0.42008614  0.74822060  0.75247980     1.01800
Cr794      Cr  0.35091797  0.69948611  0.75078362     1.93700
Cr795      Cr  0.32716785  0.72579149  0.79886744     1.93200
Cr796      Cr  0.38848929  0.72432533  0.80765140     1.39100
O797        O  0.35556645  0.71602241  0.78586957    -1.23800
O798        O  0.24501575  0.61374143  0.75565906    -0.86100
O799        O  0.25729701  0.56615683  0.76696623    -0.83100
C800        C  0.25706597  0.54337898  0.77976316     0.97400
O801        O  0.23187719  0.52151943  0.79167217    -0.83200
O802        O  0.22249664  0.54984419  0.83959688    -0.85800
C803        C  0.21471410  0.56642540  0.85487894     1.01900
O804        O  0.20241905  0.58115906  0.84379351    -0.78600
O805        O  0.24121265  0.62211101  0.80127697    -0.78800
C806        C  0.25588419  0.63128049  0.77788401     1.01900
O807        O  0.18185941  0.56375263  0.73720234    -0.86100
O808        O  0.19783259  0.51809190  0.74234015    -0.83100
C809        C  0.17113617  0.49638275  0.75175275     0.97400
O810        O  0.16513627  0.99931330  0.77680931    -0.83200
O811        O  0.15577176  0.52047663  0.82716052    -0.85800
C812        C  0.13883234  0.53253165  0.82111945     1.01900
O813        O  0.15017935  0.55718037  0.80595452    -0.78600
O814        O  0.18554921  0.60143171  0.76594744    -0.78700
C815        C  0.17283880  0.58295503  0.74453832     1.01800
Cr816      Cr  0.21941413  0.56511177  0.75309743     1.93700
Cr817      Cr  0.19459156  0.52451053  0.80742488     1.93200
Cr818      Cr  0.19583595  0.58861415  0.80313341     1.39100
O819        O  0.20354713  0.55944912  0.78810763    -1.23800
C820        C  0.34198593  0.88128013  0.63716384     0.02400
C821        C  0.33845705  0.85404779  0.65089314    -0.13800
C822        C  0.32897573  0.84807651  0.67956212    -0.00100
C823        C  0.32359321  0.87016461  0.69477642    -0.12300
C824        C  0.32741842  0.89785142  0.68150428     0.02400
C825        C  0.33669187  0.90327428  0.65268184    -0.11700
H826        H  0.34337195  0.83749198  0.63922729     0.08000
H827        H  0.31753611  0.86643567  0.71723534     0.05500
H828        H  0.34026554  0.92483084  0.64248271     0.05400
C829        C  0.19688801  0.89638405  0.31166821     0.02400
C830        C  0.17350295  0.89642407  0.32972823    -0.13800
C831        C  0.18117037  0.91046862  0.35712441    -0.00100
C832        C  0.21143020  0.92117298  0.36830857    -0.12300
C833        C  0.23425459  0.91907721  0.35167104     0.02400
C834        C  0.22789094  0.90964557  0.32287108    -0.11700
H835        H  0.14906320  0.88576919  0.32282681     0.08000
H836        H  0.21655216  0.92935762  0.39032266     0.05500
H837        H  0.24734383  0.91222739  0.30982518     0.05400
C838        C  0.51689530  0.72123002  0.30721686     0.02400
C839        C  0.51121051  0.74306945  0.32239867    -0.13800
C840        C  0.50670639  0.74091026  0.35208327    -0.00100
C841        C  0.50561501  0.71489336  0.36619612    -0.12300
C842        C  0.50880319  0.69140445  0.35085667     0.02400
C843        C  0.51509716  0.69514780  0.32145652    -0.11700
H844        H  0.51062977  0.76203472  0.31098435     0.08000
H845        H  0.50236071  0.71289051  0.38910948     0.05500
H846        H  0.51791262  0.67734785  0.30950418     0.05400
C847        C  0.12230239  0.80039490  0.51982274     0.79500
N848        N  0.15456284  0.81766352  0.51791249    -0.78800
C849        C  0.17153213  0.80251270  0.51711603     0.81900
N850        N  0.15591437  0.76975289  0.51708389    -0.78800
C851        C  0.12361904  0.75233866  0.51882886     0.82000
N852        N  0.10707246  0.76780383  0.51983848    -0.80500
O853        O  0.47796443  0.90482519  0.43173478    -0.86100
O854        O  0.03900201  0.94971118  0.42425821    -0.83100
C855        C  0.04372057  0.96625924  0.44693623     0.97400
O856        O  0.04870403  0.95702709  0.47023966    -0.83200
O857        O  0.04364266  0.91388100  0.51160501    -0.85800
C858        C  0.01597039  0.89933311  0.52222015     1.01900
O859        O  0.49337532  0.88707608  0.50710893    -0.78600
O860        O  0.45663663  0.86155949  0.45846600    -0.78800
C861        C  0.45432229  0.88265705  0.44471887     1.01900
O862        O  0.49199275  0.85868656  0.40738483    -0.86100
O863        O  0.05263693  0.89968181  0.40564078    -0.83100
C864        C  0.08052762  0.91915136  0.41383359     0.97400
O865        O  0.08503609  0.93756964  0.43499584    -0.83200
O866        O  0.07267143  0.89082902  0.47387145    -0.85800
C867        C  0.05642130  0.86441564  0.48652355     1.01900
O868        O  0.02697232  0.85259613  0.49177530    -0.78600
O869        O  0.49535289  0.83333881  0.44401137    -0.78700
C870        C  0.49205696  0.83483772  0.41773705     1.01800
Cr871      Cr  0.01541257  0.90142409  0.41960960     1.93700
Cr872      Cr  0.05949664  0.92287658  0.47137184     1.93200
Cr873      Cr  0.49554158  0.86233707  0.47400926     1.39100
O874        O  0.02256607  0.89440780  0.45496491    -1.23800
O875        O  0.02313768  0.99704526  0.42952729    -0.86100
O876        O  0.47189132  0.00855121  0.42209906    -0.83100
C877        C  0.45424478  0.99909642  0.44423132     0.97400
O878        O  0.46460282  0.51854246  0.46807287    -0.83200
O879        O  0.50417198  0.55968044  0.51106082    -0.85800
C880        C  0.01675329  0.54233645  0.52144715     1.01900
O881        O  0.03191308  0.53201597  0.50749704    -0.78600
O882        O  0.06143373  0.52046789  0.46251595    -0.78800
C883        C  0.04288259  0.99613948  0.44590212     1.01900
O884        O  0.06928564  0.55824811  0.40966508    -0.86100
O885        O  0.52554620  0.57681442  0.40537509    -0.83100
C886        C  0.50613928  0.58586917  0.41074177     0.97400
O887        O  0.48681772  0.57313794  0.43125800    -0.83200
O888        O  0.03076549  0.60693281  0.46938195    -0.85800
C889        C  0.05515399  0.61811281  0.48488594     1.01900
O890        O  0.06455792  0.59974575  0.49382327    -0.78600
O891        O  0.09041056  0.58803588  0.44778944    -0.78700
C892        C  0.09153653  0.58343787  0.42152413     1.01800
Cr893      Cr  0.02236667  0.53527695  0.41910903     1.93700
Cr894      Cr  0.49839819  0.56432963  0.46967111     1.93200
Cr895      Cr  0.05950779  0.55910227  0.47604878     1.39100
O896        O  0.02669682  0.55123405  0.45432874    -1.23800
O897        O  0.41291851  0.95282354  0.42060872    -0.86100
O898        O  0.42410185  0.90431854  0.42929963    -0.83100
C899        C  0.42401451  0.88228936  0.44324553     0.97400
O900        O  0.39874701  0.86069058  0.45531259    -0.83200
O901        O  0.38592415  0.88668679  0.50304169    -0.85800
C902        C  0.37661969  0.90209019  0.51818161     1.01900
O903        O  0.36463277  0.91684839  0.50667337    -0.78600
O904        O  0.40710539  0.95934546  0.46635672    -0.78800
C905        C  0.42327852  0.96891877  0.44366656     1.01900
O906        O  0.34979121  0.90481504  0.39956830    -0.86100
O907        O  0.36416663  0.85794046  0.40299304    -0.83100
C908        C  0.33802452  0.83543342  0.41263655     0.97400
O909        O  0.33185213  0.83459035  0.43876253    -0.83200
O910        O  0.32008052  0.85737944  0.48695082    -0.85800
C911        C  0.30312063  0.86917810  0.48008529     1.01900
O912        O  0.31517783  0.89500076  0.46627322    -0.78600
O913        O  0.35434987  0.94244341  0.42883425    -0.78700
C914        C  0.34206363  0.92503031  0.40684255     1.01800
Cr915      Cr  0.38651117  0.90451233  0.41573133     1.93700
Cr916      Cr  0.36020263  0.86246985  0.46936134     1.93200
Cr917      Cr  0.36133129  0.92652490  0.46586776     1.39100
O918        O  0.36966275  0.89780524  0.45051654    -1.23800
C919        C  0.19598702  0.71558838  0.30559604     0.02400
C920        C  0.22524609  0.73987141  0.31731104    -0.13800
C921        C  0.23389182  0.73717046  0.34509144    -0.00100
C922        C  0.21445749  0.70898748  0.36034640    -0.12300
C923        C  0.18550681  0.68431975  0.34902070     0.02400
C924        C  0.17623596  0.68799763  0.32180680    -0.11700
H925        H  0.24079530  0.76131084  0.30527570     0.08000
H926        H  0.22120500  0.70698581  0.38180702     0.05500
H927        H  0.15311290  0.66983829  0.31363828     0.05400
C928        C  0.36406998  0.54140980  0.97312340     0.02400
C929        C  0.34069393  0.51763071  0.99057423    -0.13800
C930        C  0.34720806  0.51614954  0.01939140    -0.00100
C931        C  0.37634711  0.54026901  0.03105874    -0.12300
C932        C  0.39990761  0.56464605  0.01390623     0.02400
C933        C  0.39393558  0.56386216  0.98465427    -0.11700
H934        H  0.32057849  0.99639031  0.97887825     0.08000
H935        H  0.38049866  0.54004697  0.05366424     0.05500
H936        H  0.41234849  0.58115462  0.97070301     0.05400
C937        C  0.35947833  0.73079959  0.97544370     0.02400
C938        C  0.38741785  0.73566230  0.98818282    -0.13800
C939        C  0.39342770  0.74432472  0.01713772    -0.00100
C940        C  0.37157052  0.74867243  0.03337058    -0.12300
C941        C  0.34315166  0.74301795  0.02096682     0.02400
C942        C  0.33709731  0.73377712  0.99214914    -0.11700
H943        H  0.40465369  0.73295786  0.97555695     0.08000
H944        H  0.37606217  0.75516948  0.05578489     0.05500
H945        H  0.31508911  0.72936153  0.98260736     0.05400
C946        C  0.28390756  0.63265611  0.18780859     0.79500
N947        N  0.26735066  0.60007260  0.18972037    -0.78800
C948        C  0.28252004  0.58321911  0.18847332     0.81900
N949        N  0.31456305  0.59903840  0.18465058    -0.78800
C950        C  0.33150790  0.63170627  0.18304381     0.82000
N951        N  0.31591334  0.64820207  0.18405575    -0.80500
O952        O  0.07463029  0.78421662  0.08716147    -0.86100
O953        O  0.08749523  0.73669075  0.09542739    -0.83100
C954        C  0.08801832  0.71504821  0.10952833     0.97400
O955        O  0.06360239  0.69399167  0.12290082    -0.83200
O956        O  0.04570006  0.71784859  0.17000285    -0.85800
C957        C  0.03374319  0.73185351  0.18370014     1.01900
O958        O  0.02209112  0.74566810  0.17033222    -0.78600
O959        O  0.06617277  0.78940597  0.13253051    -0.78800
C960        C  0.08369193  0.79971390  0.11070269     1.01900
O961        O  0.01220109  0.73431162  0.06365475    -0.86100
O962        O  0.02959610  0.68986345  0.06793889    -0.83100
C963        C  0.00558523  0.66504639  0.07781571     0.97400
O964        O  0.99816240  0.66351191  0.10367139    -0.83200
O965        O  0.47879714  0.68437262  0.14961092    -0.85800
C966        C  0.46155445  0.69552936  0.14185132     1.00400
O967        O  0.47364564  0.72171803  0.12850327    -0.78600
O968        O  0.01540892  0.77145851  0.09231563    -0.78700
C969        C  0.00332790  0.75372940  0.07053499     1.01800
Cr970      Cr  0.04962306  0.73580251  0.08115098     1.93700
Cr971      Cr  0.02327100  0.69306476  0.13488898     1.93200
Cr972      Cr  0.02091509  0.75529778  0.12969331     1.39100
O973        O  0.03159115  0.72787081  0.11544075    -1.23800
O974        O  0.18202364  0.82977551  0.09878354    -0.86100
O975        O  0.13239695  0.84061045  0.09075733    -0.83100
C976        C  0.11474022  0.82990887  0.11271495     0.97400
O977        O  0.12352106  0.84485031  0.13633486    -0.83200
O978        O  0.16463276  0.88504968  0.17887511    -0.85800
C979        C  0.17718609  0.87093144  0.19035971     1.01900
O980        O  0.19390878  0.86317872  0.17542950    -0.78600
O981        O  0.22279078  0.85437009  0.12818927    -0.78800
C982        C  0.20357887  0.82988218  0.11349463     1.01900
O983        O  0.22658445  0.89203630  0.07697534    -0.86100
O984        O  0.17896590  0.90604353  0.07273016    -0.83100
C985        C  0.15863434  0.91327747  0.08069814     0.97400
O986        O  0.14191232  0.90017208  0.10245867    -0.83200
O987        O  0.18831316  0.93745873  0.14181523    -0.85800
C988        C  0.21299381  0.94855353  0.15699704     1.01900
O989        O  0.22402293  0.93088974  0.16364159    -0.78600
O990        O  0.24906884  0.92208073  0.11493159    -0.78700
C991        C  0.24915230  0.91705378  0.08852513     1.01800
Cr992      Cr  0.18032105  0.86826870  0.08766350     1.93700
Cr993      Cr  0.15676002  0.89098603  0.13864618     1.93200
Cr994      Cr  0.21968421  0.89168304  0.14368283     1.39100
O995        O  0.18558646  0.88321604  0.12339404    -1.23800
O996        O  0.14146275  0.73765990  0.09682700    -0.86100
O997        O  0.20274376  0.78560039  0.09025932    -0.83100
C998        C  0.20618609  0.80081687  0.11345895     0.97400
O999        O  0.21148280  0.79094426  0.13630733    -0.83200
O1000       O  0.20688982  0.74629266  0.17636773    -0.85800
C1001       C  0.17922617  0.72961174  0.18675423     1.01900
O1002       O  0.15551297  0.71396747  0.17064847    -0.78600
O1003       O  0.12006862  0.69262750  0.12120251    -0.78800
C1004       C  0.11802119  0.71499127  0.10952044     1.01900
O1005       O  0.15445569  0.69215862  0.06912708    -0.86100
O1006       O  0.21732410  0.73733832  0.06956001    -0.83100
C1007       C  0.24512848  0.75583759  0.07855192     0.97400
O1008       O  0.24947589  0.77349471  0.10030243    -0.83200
O1009       O  0.23790713  0.72602593  0.13801018    -0.85800
C1010       C  0.22168131  0.69855409  0.14900666     1.01900
O1011       O  0.19191163  0.68546546  0.15281558    -0.78600
O1012       O  0.15907783  0.66520835  0.10350071    -0.78700
C1013       C  0.15466128  0.66766677  0.07758282     1.01800
Cr1014     Cr  0.17971008  0.73764119  0.08417558     1.93700
Cr1015     Cr  0.22341600  0.75729412  0.13633011     1.93200
Cr1016     Cr  0.15873410  0.69231657  0.13555343     1.39100
O1017       O  0.18699571  0.72895569  0.11897226    -1.23800
C1018       C  0.17778194  0.54846034  0.97274461     0.02400
C1019       C  0.17540649  0.52340854  0.98925482    -0.13800
C1020       C  0.16155507  0.51717996  0.01661058    -0.00100
C1021       C  0.15345566  0.53926140  0.02834661    -0.12300
C1022       C  0.15673198  0.56547074  0.01261832     0.02400
C1023       C  0.16811629  0.56904879  0.98435356    -0.11700
H1024       H  0.18126567  0.00562516  0.97907260     0.08000
H1025       H  0.14506608  0.53646472  0.05003118     0.05500
H1026       H  0.16961386  0.58793134  0.97116255     0.05400
C1027       C  0.15124642  0.59074441  0.02634143    -0.06900
C1028       C  0.17143515  0.62327942  0.01883845    -0.18000
C1029       C  0.16988316  0.64831381  0.03278012     0.10300
C1030       C  0.15047691  0.64173986  0.05725335    -0.06800
C1031       C  0.12934923  0.60938358  0.06420234    -0.18000
C1032       C  0.12802057  0.58398822  0.04792463     0.10400
S1033       S  0.19411901  0.68813714  0.01868335    -0.33000
S1034       S  0.09457354  0.54412668  0.05444596    -0.33000
H1035       H  0.09320278  0.53266563  0.02639060     0.28400
H1036       H  0.16875604  0.69395162  0.01765901     0.28400
H1037       H  0.18913062  0.62969756  0.00219534     0.19000
H1038       H  0.11314030  0.60384431  0.08205178     0.19000
C1039       C  0.15431439  0.93703171  0.06465809    -0.06900
C1040       C  0.15054163  0.93373262  0.03502589    -0.18000
C1041       C  0.14773809  0.95644834  0.01904061     0.10300
C1042       C  0.15390253  0.98602505  0.03198121    -0.06800
C1043       C  0.15680305  0.98859146  0.06189755    -0.18000
C1044       C  0.15459853  0.96356314  0.07823187     0.10400
S1045       S  0.13230253  0.94401858  0.98348892    -0.33000
S1046       S  0.15172933  0.96694774  0.11622214    -0.33000
H1047       H  0.12294665  0.93723162  0.11826908     0.28400
H1048       H  0.11512342  0.96011734  0.98438547     0.28400
H1049       H  0.14786057  0.91232560  0.02449447     0.19000
H1050       H  0.16505572  0.51340892  0.07439321     0.19000
C1051       C  0.23757462  0.68167991  0.15893407    -0.06900
C1052       C  0.26553698  0.69877161  0.17511450    -0.18000
C1053       C  0.28006495  0.68307729  0.18684996     0.10300
C1054       C  0.26666997  0.64960047  0.18186128    -0.06800
C1055       C  0.23812207  0.63253346  0.16639915    -0.18000
C1056       C  0.22390436  0.64822314  0.15450787     0.10400
S1057       S  0.31496972  0.70691216  0.20853843    -0.33000
S1058       S  0.19002780  0.62473827  0.13168095    -0.33000
H1059       H  0.20143093  0.64826506  0.11037433     0.28400
H1060       H  0.30903626  0.68165172  0.22683291     0.28400
H1061       H  0.27568594  0.72434928  0.17921405     0.19000
H1062       H  0.22779126  0.60704462  0.16176813     0.19000
C1063       C  0.22947154  0.98269681  0.16647354    -0.06900
C1064       C  0.22901497  0.50496657  0.15017198    -0.18000
C1065       C  0.24748711  0.53783246  0.15587586     0.10300
C1066       C  0.26367352  0.54866439  0.18208629    -0.06800
C1067       C  0.26123300  0.52625504  0.20200315    -0.18000
C1068       C  0.24736152  0.99400942  0.19200215     0.10400
S1069       S  0.25063175  0.56470181  0.12808269    -0.33000
S1070       S  0.24734289  0.96748731  0.21853969    -0.33000
H1071       H  0.21480980  0.94416026  0.21535099     0.28400
H1072       H  0.28291988  0.58784890  0.13274938     0.28400
H1073       H  0.21807118  0.49720867  0.12941556     0.19000
H1074       H  0.27335836  0.53462344  0.22229943     0.19000
C1075       C  0.36521949  0.64852538  0.17404691    -0.06900
C1076       C  0.37537036  0.67330348  0.15415306    -0.18000
C1077       C  0.40587453  0.68812471  0.14226288     0.10300
C1078       C  0.42755141  0.67865913  0.15085749    -0.06800
C1079       C  0.41717496  0.65371275  0.17078869    -0.18000
C1080       C  0.38661151  0.63891436  0.18263238     0.10400
S1081       S  0.41458449  0.71768947  0.11538530    -0.33000
S1082       S  0.37709895  0.60914750  0.20959191    -0.33000
H1083       H  0.35825687  0.61766059  0.22614513     0.28400
H1084       H  0.42578657  0.70304300  0.09621144     0.28400
H1085       H  0.35894651  0.68042871  0.14684553     0.19000
H1086       H  0.43332286  0.64625831  0.17810971     0.19000
C1087       C  0.31916553  0.74600510  0.03799012    -0.06900
C1088       C  0.32597650  0.77672628  0.04724602    -0.18000
C1089       C  0.30241218  0.78119176  0.06016899     0.10300
C1090       C  0.27163022  0.75421036  0.06467680    -0.06800
C1091       C  0.26548571  0.72344510  0.05639467    -0.18000
C1092       C  0.28860122  0.71905442  0.04297036     0.10400
S1093       S  0.31254250  0.82184708  0.06876217    -0.33000
S1094       S  0.27740057  0.67840372  0.03261893    -0.33000
H1095       H  0.30797038  0.68267665  0.03526193     0.28400
H1096       H  0.28252022  0.81714977  0.06176766     0.28400
H1097       H  0.34934422  0.79752828  0.04315963     0.19000
H1098       H  0.24242244  0.70236905  0.06079638     0.19000
C1099       C  0.42172871  0.74688367  0.03066044    -0.06900
C1100       C  0.44621283  0.77699518  0.04058928    -0.18000
C1101       C  0.47387489  0.78038041  0.05290901     0.10300
C1102       C  0.47715734  0.75306601  0.05492745    -0.06800
C1103       C  0.45294827  0.72324251  0.04402753    -0.18000
C1104       C  0.42498740  0.71969946  0.03286028     0.10400
S1105       S  0.50516874  0.81973101  0.06485305    -0.33000
S1106       S  0.39328638  0.67951212  0.02366201    -0.33000
H1107       H  0.36813041  0.68414011  0.03187419     0.28400
H1108       H  0.48936250  0.83641230  0.05885947     0.28400
H1109       H  0.44360359  0.79780055  0.03851427     0.19000
H1110       H  0.45469138  0.70192012  0.04617238     0.19000
C1111       C  0.27539974  0.94134821  0.07071891    -0.06900
C1112       C  0.28878922  0.93139869  0.04911038    -0.18000
C1113       C  0.31345750  0.95398320  0.03165919     0.10300
C1114       C  0.32441177  0.98716699  0.03543203    -0.06800
C1115       C  0.31117351  0.99697508  0.05706738    -0.18000
C1116       C  0.28674424  0.97461694  0.07440655     0.10400
S1117       S  0.33041448  0.93906378  0.00562755    -0.33000
S1118       S  0.26974367  0.99025421  0.09946820    -0.33000
H1119       H  0.23796973  0.96588487  0.09419984     0.28400
H1120       H  0.36093540  0.96691819  0.00508426     0.28400
H1121       H  0.28035592  0.90597062  0.04612660     0.19000
H1122       H  0.32392639  0.52536443  0.06775388     0.19000
C1123       C  0.43033892  0.59072601  0.02689698    -0.06900
C1124       C  0.44489451  0.58241262  0.04814509    -0.18000
C1125       C  0.47109952  0.60599724  0.06363683     0.10300
C1126       C  0.48376817  0.63881156  0.05755708    -0.06800
C1127       C  0.47148249  0.64713110  0.03463218    -0.18000
C1128       C  0.44457252  0.62380729  0.01977118     0.10400
S1129       S  0.48715410  0.59284726  0.09113689    -0.33000
S1130       S  0.42825480  0.63888944  0.99428286    -0.33000
H1131       H  0.39644606  0.61855743  0.00297433     0.28400
H1132       H  0.51812554  0.62007943  0.09036496     0.28400
H1133       H  0.43537146  0.55730991  0.05323010     0.19000
H1134       H  0.48113233  0.67236464  0.02994041     0.19000
C1135       C  0.18617572  0.71855242  0.27628210    -0.06900
C1136       C  0.17417483  0.69182028  0.25764930    -0.18000
C1137       C  0.16819721  0.69421545  0.22891361     0.10300
C1138       C  0.17603141  0.72448017  0.21792231    -0.06800
C1139       C  0.18629888  0.75081505  0.23677521    -0.18000
C1140       C  0.18973741  0.74759150  0.26601580     0.10400
S1141       S  0.15218773  0.65869852  0.20623173    -0.33000
S1142       S  0.19679900  0.78048744  0.28941779    -0.33000
H1143       H  0.18079717  0.76117986  0.31305164     0.28400
H1144       H  0.15385458  0.63814234  0.22606369     0.28400
H1145       H  0.17042844  0.66917903  0.26541610     0.19000
H1146       H  0.19148993  0.77389870  0.22871144     0.19000
C1147       C  0.31276310  0.81101044  0.39357950    -0.06900
C1148       C  0.28120060  0.80214874  0.40029325    -0.18000
C1149       C  0.25554320  0.77972899  0.38377084     0.10300
C1150       C  0.26100228  0.76486090  0.35996955    -0.06800
C1151       C  0.29253538  0.77436488  0.35243615    -0.18000
C1152       C  0.31845796  0.79716151  0.36905364     0.10400
S1153       S  0.21628157  0.77102840  0.39438120    -0.33000
S1154       S  0.35774442  0.80592247  0.35890118    -0.33000
H1155       H  0.36870729  0.80847434  0.38696847     0.28400
H1156       H  0.20330672  0.76416166  0.36677704     0.28400
H1157       H  0.27639777  0.81319162  0.41850426     0.19000
H1158       H  0.29687006  0.76291295  0.33429204     0.19000
C1159       C  0.11841816  0.60871837  0.40439063    -0.06900
C1160       C  0.12594597  0.60060361  0.37761799    -0.18000
C1161       C  0.14852375  0.62450897  0.35936680     0.10300
C1162       C  0.16310782  0.65733288  0.36758365    -0.06800
C1163       C  0.15609013  0.66528755  0.39440050    -0.18000
C1164       C  0.13474308  0.64173495  0.41295918     0.10400
S1165       S  0.15927285  0.61292635  0.32618665    -0.33000
S1166       S  0.12834401  0.65643019  0.44640930    -0.33000
H1167       H  0.13958207  0.64003847  0.46254472     0.28400
H1168       H  0.14138370  0.57942787  0.33040824     0.28400
H1169       H  0.11395302  0.57553021  0.37092360     0.19000
H1170       H  0.16711875  0.69040970  0.40090232     0.19000
C1171       C  0.10628391  0.71781634  0.51147857    -0.06900
C1172       C  0.08574777  0.70806374  0.48805736    -0.18000
C1173       C  0.06917185  0.67605124  0.47854195     0.10300
C1174       C  0.07239640  0.65266428  0.49352398    -0.06800
C1175       C  0.09310620  0.66261814  0.51714127    -0.18000
C1176       C  0.11031032  0.69504726  0.52608902     0.10400
S1177       S  0.04559910  0.66649733  0.44642186    -0.33000
S1178       S  0.13636563  0.70702953  0.55658613    -0.33000
H1179       H  0.13084730  0.67619572  0.56277935     0.28400
H1180       H  0.05382638  0.69805588  0.43951512     0.28400
H1181       H  0.08338666  0.72601494  0.47666194     0.19000
H1182       H  0.09574970  0.64494245  0.52868056     0.19000
C1183       C  0.20572235  0.82105933  0.50994353    -0.06900
C1184       C  0.21526310  0.84306912  0.48762892    -0.18000
C1185       C  0.24657533  0.85915110  0.47747235     0.10300
C1186       C  0.26937327  0.85316537  0.48976945    -0.06800
C1187       C  0.25967219  0.83118709  0.51234662    -0.18000
C1188       C  0.22833942  0.81540549  0.52268320     0.10400
S1189       S  0.25492374  0.88527465  0.44765506    -0.33000
S1190       S  0.21894285  0.78901494  0.55256483    -0.33000
H1191       H  0.19557567  0.79459975  0.56435891     0.28400
H1192       H  0.27490752  0.91330499  0.46375203     0.28400
H1193       H  0.19787645  0.84710147  0.47735292     0.19000
H1194       H  0.27668763  0.82649297  0.52240146     0.19000
C1195       C  0.07222541  0.84738607  0.49596970    -0.06900
C1196       C  0.09660536  0.86219964  0.51630453    -0.18000
C1197       C  0.11228021  0.84671929  0.52597123     0.10300
C1198       C  0.10372444  0.81602874  0.51466364    -0.06800
C1199       C  0.07867114  0.80101174  0.49492436    -0.18000
C1200       C  0.06325682  0.81651836  0.48520104     0.10400
S1201       S  0.14222439  0.86688309  0.55314368    -0.33000
S1202       S  0.03418650  0.79683609  0.45736108    -0.33000
H1203       H  0.04535338  0.82503937  0.44141892     0.28400
H1204       H  0.13718526  0.83850615  0.56589518     0.28400
H1205       H  0.10320003  0.88578865  0.52490698     0.19000
H1206       H  0.07225472  0.77775734  0.48561749     0.19000
C1207       C  0.50671634  0.66337259  0.36543024    -0.06900
C1208       C  0.02900749  0.65454255  0.36062414    -0.18000
C1209       C  0.03000435  0.62944348  0.37412839     0.10300
C1210       C  0.50633220  0.61167978  0.39357343    -0.06800
C1211       C  0.48075119  0.61708806  0.39665701    -0.18000
C1212       C  0.48042988  0.64222238  0.38254914     0.10400
S1213       S  0.06530273  0.62663929  0.36909958    -0.33000
S1214       S  0.44534245  0.64531914  0.38666558    -0.33000
H1215       H  0.44641148  0.65674351  0.35907313     0.28400
H1216       H  0.08110864  0.65158482  0.34932407     0.28400
H1217       H  0.04891437  0.67122228  0.34752543     0.19000
H1218       H  0.46060431  0.60146001  0.41005441     0.19000
C1219       C  0.50236926  0.76534231  0.36814985    -0.06900
C1220       C  0.47795057  0.75480070  0.38875417    -0.18000
C1221       C  0.47264251  0.77668683  0.40428235     0.10300
C1222       C  0.49153725  0.80995570  0.39872718    -0.06800
C1223       C  0.01257895  0.81643235  0.37701333    -0.18000
C1224       C  0.01823098  0.79448696  0.36220683     0.10400
S1225       S  0.44155371  0.76074256  0.43093490    -0.33000
S1226       S  0.05331235  0.81146859  0.33985052    -0.33000
H1227       H  0.06149252  0.78836632  0.34656555     0.28400
H1228       H  0.43483454  0.78571012  0.42951194     0.28400
H1229       H  0.46279619  0.72927119  0.39280973     0.19000
H1230       H  0.02863359  0.84200449  0.37373327     0.19000
C1231       C  0.52230288  0.72454682  0.27601004    -0.06900
C1232       C  0.49911559  0.72523503  0.25944520    -0.18000
C1233       C  0.50176304  0.72742883  0.22979912     0.10300
C1234       C  0.02940124  0.72921588  0.21518825    -0.06800
C1235       C  0.05083278  0.72564182  0.23219293    -0.18000
C1236       C  0.04680496  0.72245077  0.26191028     0.10400
S1237       S  0.46961355  0.72682654  0.21041534    -0.33000
S1238       S  0.07742122  0.72130963  0.28202662    -0.33000
H1239       H  0.07489327  0.73739018  0.30630416     0.28400
H1240       H  0.44825550  0.71943805  0.23334377     0.28400
H1241       H  0.47848950  0.72360364  0.26994670     0.19000
H1242       H  0.07126235  0.72612942  0.22238060     0.19000
C1243       C  0.31659294  0.92584151  0.39087909    -0.06900
C1244       C  0.29128727  0.89605299  0.38126955    -0.18000
C1245       C  0.26404678  0.89335692  0.36942665     0.10300
C1246       C  0.26239935  0.92135293  0.36535800    -0.06800
C1247       C  0.28780089  0.95138577  0.37448320    -0.18000
C1248       C  0.31493124  0.95394396  0.38718178     0.10400
S1249       S  0.23151837  0.85303944  0.36186182    -0.33000
S1250       S  0.34688249  0.99362065  0.39719208    -0.33000
H1251       H  0.37147555  0.98742104  0.39088423     0.28400
H1252       H  0.20685591  0.85923043  0.36743229     0.28400
H1253       H  0.29180272  0.87417918  0.38463677     0.19000
H1254       H  0.28660981  0.97291395  0.37143147     0.19000
C1255       C  0.10730029  0.91842530  0.39975534    -0.06900
C1256       C  0.10439023  0.88812706  0.39587589    -0.18000
C1257       C  0.12903139  0.88516182  0.38379133     0.10300
C1258       C  0.15685095  0.91289103  0.37418067    -0.06800
C1259       C  0.16016404  0.94331856  0.37849420    -0.18000
C1260       C  0.13569393  0.94639543  0.39120348     0.10400
S1261       S  0.12404924  0.84552313  0.38190497    -0.33000
S1262       S  0.14146910  0.98628396  0.39455698    -0.33000
H1263       H  0.10932780  0.97672327  0.39039074     0.28400
H1264       H  0.15654798  0.85602230  0.38487099     0.28400
H1265       H  0.08303232  0.86659527  0.40306972     0.19000
H1266       H  0.18147591  0.96467829  0.37099774     0.19000
C1267       C  0.17634130  0.86882229  0.22198263    -0.06900
C1268       C  0.19955458  0.86522186  0.23580873    -0.18000
C1269       C  0.20512581  0.87131722  0.26513541     0.10300
C1270       C  0.18889594  0.88396263  0.28121544    -0.06800
C1271       C  0.16429651  0.88551806  0.26729301    -0.18000
C1272       C  0.15664969  0.87630814  0.23868464     0.10400
S1273       S  0.23217588  0.86076980  0.28010113    -0.33000
S1274       S  0.12159051  0.87446186  0.22409878    -0.33000
H1275       H  0.10890184  0.87802772  0.25004882     0.28400
H1276       H  0.21339754  0.84820645  0.30468059     0.28400
H1277       H  0.21401249  0.85815296  0.22360070     0.19000
H1278       H  0.15133250  0.89506434  0.27826449     0.19000
C1279       C  0.35157542  0.88663587  0.60663464    -0.06900
C1280       C  0.37879324  0.91575281  0.59838416    -0.18000
C1281       C  0.38909524  0.92116010  0.56981571     0.10300
C1282       C  0.37228472  0.89672569  0.54914516    -0.06800
C1283       C  0.34564599  0.86749185  0.55755682    -0.18000
C1284       C  0.33459313  0.86255204  0.58566150     0.10400
S1285       S  0.42355305  0.95954977  0.56105805    -0.33000
S1286       S  0.29723628  0.82604142  0.59280089    -0.33000
H1287       H  0.28659485  0.83995413  0.61340838     0.28400
H1288       H  0.43143345  0.94925407  0.53568366     0.28400
H1289       H  0.39210807  0.93435210  0.61428649     0.19000
H1290       H  0.33200745  0.84902659  0.54165289     0.19000
C1291       C  0.18962916  0.55251215  0.94290460    -0.06900
C1292       C  0.21678021  0.58165261  0.93463404    -0.18000
C1293       C  0.22752463  0.58661838  0.90619357     0.10300
C1294       C  0.21140297  0.56158787  0.88587363    -0.06800
C1295       C  0.18525220  0.53216651  0.89449364    -0.18000
C1296       C  0.17346004  0.52780425  0.92233367     0.10400
S1297       S  0.26124699  0.62533107  0.89700398    -0.33000
S1298       S  0.13409134  0.99308397  0.92811418    -0.33000
H1299       H  0.12642524  0.98138131  0.89989261     0.28400
H1300       H  0.26929755  0.61498005  0.87175777     0.28400
H1301       H  0.22920648  0.60084118  0.95027325     0.19000
H1302       H  0.17222508  0.51346557  0.87862833     0.19000
C1303       C  0.34538384  0.71026349  0.88514498    -0.06900
C1304       C  0.34310908  0.73578844  0.89756202    -0.18000
C1305       C  0.34821414  0.74324319  0.92654609     0.10300
C1306       C  0.35426973  0.72387719  0.94445007    -0.06800
C1307       C  0.35560468  0.69768374  0.93247200    -0.18000
C1308       C  0.35122081  0.69065024  0.90310164     0.10400
S1309       S  0.34923221  0.77944613  0.93871822    -0.33000
S1310       S  0.35313262  0.65636248  0.89014953    -0.33000
H1311       H  0.32987037  0.64751311  0.86894625     0.28400
H1312       H  0.37406426  0.78876582  0.95840423     0.28400
H1313       H  0.33940526  0.75170150  0.88430051     0.19000
H1314       H  0.36001151  0.68254662  0.94613523     0.19000
C1315       C  0.33034810  0.77058865  0.72301547    -0.06900
C1316       C  0.30264296  0.77266130  0.72371575    -0.18000
C1317       C  0.30098286  0.79687226  0.70912888     0.10300
C1318       C  0.32794458  0.82042855  0.69407090    -0.06800
C1319       C  0.35549302  0.81832934  0.69321772    -0.18000
C1320       C  0.35712005  0.79388306  0.70728376     0.10400
S1321       S  0.26353332  0.79576211  0.70988349    -0.33000
S1322       S  0.39455082  0.79469833  0.70624744    -0.33000
H1323       H  0.40967606  0.81828095  0.68520626     0.28400
H1324       H  0.26674545  0.80883596  0.68265672     0.28400
H1325       H  0.28189399  0.75502122  0.73544671     0.19000
H1326       H  0.37627022  0.83666562  0.68202345     0.19000
C1327       C  0.35332117  0.55928097  0.88601529    -0.06900
C1328       C  0.37661176  0.55206472  0.89399724    -0.18000
C1329       C  0.37854873  0.54329585  0.92155423     0.10300
C1330       C  0.35793269  0.54339139  0.94267186    -0.06800
C1331       C  0.33367739  0.54934368  0.93483318    -0.18000
C1332       C  0.33088060  0.55693590  0.90657566     0.10400
S1333       S  0.40758461  0.53166510  0.92821602    -0.33000
S1334       S  0.29926763  0.56448170  0.89866614    -0.33000
H1335       H  0.31401300  0.58421451  0.87503675     0.28400
H1336       H  0.39044915  0.51034011  0.95040378     0.28400
H1337       H  0.39321746  0.55236844  0.87832403     0.19000
H1338       H  0.31761281  0.54925660  0.95100737     0.19000
C1339       C  0.32569481  0.92297231  0.69884279    -0.06900
C1340       C  0.34700314  0.93689214  0.72159223    -0.18000
C1341       C  0.34865505  0.96213471  0.73789524     0.10300
C1342       C  0.32749979  0.97332512  0.73245841    -0.06800
C1343       C  0.30636785  0.95975312  0.70935679    -0.18000
C1344       C  0.30514177  0.93464548  0.69259807     0.10400
S1345       S  0.38027076  0.98059930  0.76376211    -0.33000
S1346       S  0.27632352  0.91801966  0.66417254    -0.33000
H1347       H  0.27176261  0.88684317  0.66471534     0.28400
H1348       H  0.38972082  0.51221918  0.75948472     0.28400
H1349       H  0.36354484  0.92885815  0.72598918     0.19000
H1350       H  0.29025082  0.96822706  0.70472686     0.19000
C1351       C  0.43679907  0.88332226  0.84185485    -0.06900
C1352       C  0.41409874  0.87361761  0.82011633    -0.18000
C1353       C  0.39657228  0.84151532  0.81063846     0.10300
C1354       C  0.40108952  0.81807498  0.82401703    -0.06800
C1355       C  0.42373277  0.82800014  0.84604498    -0.18000
C1356       C  0.44181732  0.86032023  0.85486791     0.10400
S1357       S  0.36983362  0.83186183  0.78078742    -0.33000
S1358       S  0.47021557  0.87164185  0.88346627    -0.33000
H1359       H  0.46640055  0.84105708  0.88732931     0.28400
H1360       H  0.38001703  0.86367252  0.77290440     0.28400
H1361       H  0.41072629  0.89158777  0.80995731     0.19000
H1362       H  0.42735940  0.81034574  0.85645816     0.19000
C1363       C  0.04220604  0.98445708  0.84998858    -0.06900
C1364       C  0.05426653  0.51421502  0.83645667    -0.18000
C1365       C  0.08588583  0.53074724  0.82692627     0.10300
C1366       C  0.10564367  0.51774756  0.83220284    -0.06800
C1367       C  0.09255992  0.98696595  0.84121131    -0.18000
C1368       C  0.06084626  0.96974352  0.85040307     0.10400
S1369       S  0.09958325  0.56790472  0.80776521    -0.33000
S1370       S  0.04631584  0.92958884  0.86306233    -0.33000
H1371       H  0.52630257  0.95033172  0.89732575     0.28400
H1372       H  0.07082865  0.56795149  0.80798357     0.28400
H1373       H  0.03888139  0.52334287  0.83116429     0.19000
H1374       H  0.10604834  0.97483847  0.84073055     0.19000
C1375       C  0.44254850  0.98668662  0.84799672    -0.06900
C1376       C  0.45957426  0.51423051  0.83152200    -0.18000
C1377       C  0.44504047  0.53075891  0.82220631     0.10300
C1378       C  0.41321475  0.52021552  0.83053285    -0.06800
C1379       C  0.39713339  0.99414941  0.84849990    -0.18000
C1380       C  0.41178007  0.97752379  0.85797645     0.10400
S1381       S  0.46852976  0.56412636  0.79888396    -0.33000
S1382       S  0.39130210  0.94521480  0.88311658    -0.33000
H1383       H  0.36563632  0.94994653  0.88874149     0.28400
H1384       H  0.46687302  0.58657036  0.81728584     0.28400
H1385       H  0.48341961  0.52188478  0.82390069     0.19000
H1386       H  0.37322393  0.98657639  0.85575530     0.19000
C1387       C  0.49571485  0.82087265  0.70035787    -0.06900
C1388       C  0.48936888  0.82885390  0.72744681    -0.18000
C1389       C  0.46535046  0.80586089  0.74470292     0.10300
C1390       C  0.44718708  0.77318804  0.73534135    -0.06800
C1391       C  0.45394987  0.76502940  0.70826638    -0.18000
C1392       C  0.47803675  0.78839313  0.69080424     0.10400
S1393       S  0.45720742  0.82113583  0.77690850    -0.33000
S1394       S  0.48531979  0.77512730  0.65689158    -0.33000
H1395       H  0.01499652  0.80392010  0.65149903     0.28400
H1396       H  0.42526986  0.80888619  0.76909062     0.28400
H1397       H  0.50225923  0.85379394  0.73471876     0.19000
H1398       H  0.44039654  0.74029594  0.70059885     0.19000
C1399       C  0.09787640  0.92905360  0.69519098    -0.06900
C1400       C  0.09021196  0.94405284  0.71704416    -0.18000
C1401       C  0.11349315  0.96739858  0.73488904     0.10300
C1402       C  0.14576821  0.97617088  0.73123763    -0.06800
C1403       C  0.15372832  0.96187555  0.70876341    -0.18000
C1404       C  0.13012448  0.93818348  0.69081358     0.10400
S1405       S  0.09995029  0.98518937  0.76147299    -0.33000
S1406       S  0.14291286  0.91988285  0.66399626    -0.33000
H1407       H  0.11362446  0.90008863  0.65041453     0.28400
H1408       H  0.12475573  0.51034635  0.75928009     0.28400
H1409       H  0.06554024  0.93728124  0.72034274     0.19000
H1410       H  0.17836964  0.96853456  0.70567792     0.19000
C1411       C  0.02209559  0.89053597  0.61218443    -0.06900
C1412       C  0.00610544  0.86296687  0.59449688    -0.18000
C1413       C  0.00063339  0.86517840  0.56563546     0.10300
C1414       C  0.01288353  0.89583237  0.55346972    -0.06800
C1415       C  0.02794104  0.92334290  0.57110843    -0.18000
C1416       C  0.03095556  0.92091292  0.60051954     0.10400
S1417       S  0.98062430  0.82873005  0.54406847    -0.33000
S1418       S  0.04493568  0.95714521  0.62181468    -0.33000
H1419       H  0.02867323  0.94115589  0.64677222     0.28400
H1420       H  0.97733405  0.80700841  0.56526712     0.28400
H1421       H  0.99910591  0.83956407  0.60295001     0.19000
H1422       H  0.03772875  0.94690105  0.56181939     0.19000
C1423       C  0.14600572  0.58176921  0.72881929    -0.06900
C1424       C  0.12570085  0.55322487  0.71342088    -0.18000
C1425       C  0.09761243  0.54794396  0.70099441     0.10300
C1426       C  0.08989515  0.57231600  0.70251495    -0.06800
C1427       C  0.11012177  0.60102883  0.71759610    -0.18000
C1428       C  0.13803679  0.60609290  0.73064146     0.10400
S1429       S  0.07179243  0.50875811  0.68506426    -0.33000
S1430       S  0.16272504  0.64443651  0.74826510    -0.33000
H1431       H  0.19150042  0.64835274  0.73750968     0.28400
H1432       H  0.04310545  0.50762346  0.69174925     0.28400
H1433       H  0.13089774  0.53397863  0.71200532     0.19000
H1434       H  0.10450039  0.62000143  0.71863078     0.19000
C1435       C  0.49381313  0.58740850  0.70325567    -0.06900
C1436       C  0.46244644  0.56540235  0.69462282    -0.18000
C1437       C  0.43620505  0.56573347  0.70642442     0.10300
C1438       C  0.44101136  0.58811147  0.72874984    -0.06800
C1439       C  0.47249062  0.61015014  0.73750294    -0.18000
C1440       C  0.99642106  0.60192963  0.72312777     0.10400
S1441       S  0.39718068  0.53718033  0.69203350    -0.33000
S1442       S  0.03650895  0.63372717  0.73130302    -0.33000
H1443       H  0.04852163  0.63538840  0.70358313     0.28400
H1444       H  0.40620368  0.51971396  0.67388971     0.28400
H1445       H  0.45845211  0.54755653  0.67835239     0.19000
H1446       H  0.47678051  0.62749493  0.75439842     0.19000
C1447       C  0.03011065  0.55660650  0.61197354    -0.06900
C1448       C  0.02241530  0.52656029  0.59999594    -0.18000
C1449       C  0.01657723  0.52026179  0.57061307     0.10300
C1450       C  0.01849870  0.54454631  0.55290080    -0.06800
C1451       C  0.02616824  0.57444024  0.56512700    -0.18000
C1452       C  0.03252586  0.58089443  0.59411647     0.10400
S1453       S  0.51573601  0.98950340  0.55975789    -0.33000
S1454       S  0.04474538  0.62109475  0.60680801    -0.33000
H1455       H  0.06498577  0.62213935  0.62839782     0.28400
H1456       H  0.49387975  0.98460612  0.53822208     0.28400
H1457       H  0.02024602  0.50771767  0.61370353     0.19000
H1458       H  0.02873215  0.59367698  0.55171094     0.19000
C1459       C  0.53917895  0.07329290  0.64200000     0.02400
C1460       C  0.51715805  0.07860984  0.65667641    -0.13800
C1461       C  0.51913604  0.08395090  0.68629338    -0.00100
C1462       C  0.54407973  0.08419774  0.70127789    -0.12300
C1463       C  0.56666977  0.07930503  0.68669004     0.02400
C1464       C  0.56396294  0.07375055  0.65704882    -0.11700
H1465       H  0.49799021  0.07814686  0.64487031     0.08000
H1466       H  0.54551456  0.08734993  0.72424118     0.05500
H1467       H  0.58129142  0.07004663  0.64567657     0.05400
C1468       C  0.53261229  0.38336194  0.64287768     0.02400
C1469       C  0.51113958  0.35640178  0.65911504    -0.13800
C1470       C  0.52048177  0.34971856  0.68505371    -0.00100
C1471       C  0.55104245  0.37111952  0.69559635    -0.12300
C1472       C  0.57223793  0.39882972  0.68065095     0.02400
C1473       C  0.56359807  0.40416561  0.65375672    -0.11700
H1474       H  0.98964721  0.33835136  0.64914976     0.08000
H1475       H  0.55778298  0.36724594  0.71642818     0.05500
H1476       H  0.58069795  0.42509879  0.64195314     0.05400
C1477       C  0.95815066  0.46644531  0.85646947     0.79500
N1478       N  0.99042017  0.48236075  0.85829946    -0.78800
C1479       C  0.50718974  0.46803050  0.85411352     0.81900
N1480       N  0.99003095  0.43407633  0.85062447    -0.78800
C1481       C  0.95770863  0.41782183  0.84901361     0.82000
N1482       N  0.94213107  0.43424583  0.85127903    -0.80500
O1483       O  0.80960757  0.06478899  0.76630921    -0.86100
O1484       O  0.86893142  0.11385725  0.75649943    -0.83100
C1485       C  0.87513861  0.13136707  0.77884818     0.97400
O1486       O  0.88331616  0.12398060  0.80147049    -0.83200
O1487       O  0.88263452  0.08368703  0.84283933    -0.85800
C1488       C  0.85626931  0.06807536  0.85569884     1.01900
O1489       O  0.83080791  0.05246285  0.84160875    -0.78600
O1490       O  0.79089018  0.02293997  0.79445533    -0.78800
C1491       C  0.78714503  0.04312361  0.78054626     1.01900
O1492       O  0.82403718  0.01809762  0.74248021    -0.86100
O1493       O  0.88505747  0.06549777  0.73721926    -0.83100
C1494       C  0.91338084  0.08564249  0.74339110     0.97400
O1495       O  0.91880919  0.10459968  0.76437734    -0.83200
O1496       O  0.90995487  0.05996820  0.80438638    -0.85800
C1497       C  0.89649567  0.03552977  0.82001460     1.01900
O1498       O  0.86733451  0.02327951  0.82686612    -0.78600
O1499       O  0.83192377  0.49684299  0.78258551    -0.78700
C1500       C  0.82796469  0.99655837  0.75320318     1.01800
Cr1501     Cr  0.84777573  0.06535299  0.75327147     1.93700
Cr1502     Cr  0.89562923  0.09106460  0.80211508     1.93200
Cr1503     Cr  0.83188471  0.02648987  0.80880016     1.39100
O1504       O  0.85800868  0.06098068  0.78833591    -1.23800
O1505       O  0.85319434  0.16125661  0.76173206    -0.86100
O1506       O  0.80353854  0.17142587  0.75409801    -0.83100
C1507       C  0.78653435  0.16269868  0.77671319     0.97400
O1508       O  0.79493684  0.18067586  0.79864709    -0.83200
O1509       O  0.83563063  0.22423078  0.83919850    -0.85800
C1510       C  0.84725421  0.21062020  0.85308285     1.01900
O1511       O  0.86173353  0.19899560  0.83983598    -0.78600
O1512       O  0.88992775  0.18401201  0.79509435    -0.78800
C1513       C  0.87278421  0.16053956  0.77844053     1.01900
O1514       O  0.89816046  0.22370336  0.73928636    -0.86100
O1515       O  0.85168945  0.23655660  0.73311656    -0.83100
C1516       C  0.83238957  0.24551655  0.73905695     0.97400
O1517       O  0.81393826  0.23287068  0.75999752    -0.83200
O1518       O  0.86131699  0.27267762  0.79806913    -0.85800
C1519       C  0.88600144  0.28394239  0.81331088     1.01900
O1520       O  0.89510609  0.26547256  0.82269159    -0.78600
O1521       O  0.92065839  0.25077066  0.77842942    -0.78700
C1522       C  0.92142101  0.24723355  0.75195205     1.01800
Cr1523     Cr  0.85170573  0.19940359  0.74990611     1.93700
Cr1524     Cr  0.82847425  0.22643253  0.79786269     1.93200
Cr1525     Cr  0.88909575  0.22372504  0.80707010     1.39100
O1526       O  0.85646569  0.21593658  0.78504665    -1.23800
O1527       O  0.74572038  0.11376514  0.75556995    -0.86100
O1528       O  0.75697267  0.06517777  0.76629932    -0.83100
C1529       C  0.75683048  0.04284131  0.77990668     0.97400
O1530       O  0.73158726  0.02122505  0.79196361    -0.83200
O1531       O  0.72027698  0.04828091  0.83977708    -0.85800
C1532       C  0.71243398  0.06497762  0.85483008     1.01900
O1533       O  0.70123988  0.08051726  0.84336345    -0.78600
O1534       O  0.74174841  0.12199868  0.80121788    -0.78800
C1535       C  0.75655931  0.13127310  0.77783822     1.01900
O1536       O  0.68213410  0.06481321  0.73639488    -0.86100
O1537       O  0.69729979  0.01832923  0.74082317    -0.83100
C1538       C  0.67062713  0.99656468  0.75016756     0.97400
O1539       O  0.66568724  0.49686551  0.77776020    -0.83200
O1540       O  0.65427209  0.01960129  0.82490556    -0.85800
C1541       C  0.63775539  0.03200422  0.81852004     1.01900
O1542       O  0.65006770  0.05790411  0.80492700    -0.78600
O1543       O  0.68680829  0.10268713  0.76543426    -0.78700
C1544       C  0.67400584  0.08474461  0.74375117     1.01800
Cr1545     Cr  0.71938406  0.06514385  0.75243433     1.93700
Cr1546     Cr  0.69367313  0.02391873  0.80654105     1.93200
Cr1547     Cr  0.69599051  0.08880064  0.80260460     1.39100
O1548       O  0.70331695  0.05930070  0.78745725    -1.23800
C1549       C  0.84584900  0.38469959  0.63785488     0.02400
C1550       C  0.84300874  0.35754088  0.65127111    -0.13800
C1551       C  0.83330273  0.35081809  0.67984273    -0.00100
C1552       C  0.82780802  0.37249446  0.69553641    -0.12300
C1553       C  0.83144860  0.40039469  0.68291964     0.02400
C1554       C  0.84047530  0.40636278  0.65400459    -0.11700
H1555       H  0.84816572  0.34133727  0.63931095     0.08000
H1556       H  0.82153909  0.36812205  0.71791947     0.05500
H1557       H  0.84355315  0.42790792  0.64419923     0.05400
C1558       C  0.69035327  0.39251159  0.31463180     0.02400
C1559       C  0.67074175  0.39875059  0.33233701    -0.13800
C1560       C  0.68030890  0.41158608  0.35991645    -0.00100
C1561       C  0.70970347  0.41734123  0.37025785    -0.12300
C1562       C  0.72898865  0.40970979  0.35337845     0.02400
C1563       C  0.71956667  0.39813754  0.32531177    -0.11700
H1564       H  0.64791820  0.39392531  0.32443965     0.08000
H1565       H  0.71731860  0.42719814  0.39156500     0.05500
H1566       H  0.73520385  0.39392677  0.31173925     0.05400
C1567       C  0.02029278  0.22210203  0.30576101     0.02400
C1568       C  0.01477198  0.24408219  0.32099925    -0.13800
C1569       C  0.00905784  0.24125907  0.35055342    -0.00100
C1570       C  0.00735828  0.21487242  0.36456735    -0.12300
C1571       C  0.01055372  0.19136084  0.34922968     0.02400
C1572       C  0.01744200  0.19547462  0.31990328    -0.11700
H1573       H  0.01481834  0.26342028  0.30966510     0.08000
H1574       H  0.00347886  0.21255424  0.38740110     0.05500
H1575       H  0.01987783  0.17747968  0.30788618     0.05400
C1576       C  0.62302276  0.30241483  0.51642224     0.79500
N1577       N  0.65496139  0.31810397  0.51203826    -0.78800
C1578       C  0.67051120  0.30158472  0.51011960     0.81900
N1579       N  0.65368594  0.26890986  0.51109902    -0.78800
C1580       C  0.62170096  0.25306637  0.51519247     0.82000
N1581       N  0.60660134  0.26985304  0.51763164    -0.80500
O1582       O  0.97762490  0.40294263  0.43273789    -0.86100
O1583       O  0.54121445  0.45515508  0.42883754    -0.83100
C1584       C  0.54465261  0.47060929  0.45197243     0.97400
O1585       O  0.54914942  0.46085512  0.47523756    -0.83200
O1586       O  0.54273052  0.41600098  0.51551058    -0.85800
C1587       C  0.51476302  0.40098606  0.52534415     1.01900
O1588       O  0.99303676  0.38303554  0.50791146    -0.78600
O1589       O  0.95592916  0.35937088  0.45918347    -0.78800
C1590       C  0.95402905  0.38100050  0.44585763     1.01900
O1591       O  0.98998885  0.35623280  0.40728163    -0.86100
O1592       O  0.55881453  0.40832355  0.40955344    -0.83100
C1593       C  0.58586415  0.42776282  0.41948630     0.97400
O1594       O  0.58841663  0.44426057  0.44151103    -0.83200
O1595       O  0.57334341  0.39487731  0.47784501    -0.85800
C1596       C  0.55668593  0.36785327  0.48946534     1.01900
O1597       O  0.52720596  0.35610967  0.49434315    -0.78600
O1598       O  0.99400540  0.33048035  0.44312944    -0.78700
C1599       C  0.99054677  0.33239882  0.41696200     1.01800
Cr1600     Cr  0.51966382  0.40738028  0.42202843     1.93700
Cr1601     Cr  0.56035703  0.42700364  0.47605453     1.93200
Cr1602     Cr  0.99473205  0.35916365  0.47383281     1.39100
O1603       O  0.52455371  0.39907872  0.45778348    -1.23800
O1604       O  0.52199782  0.49981904  0.43574870    -0.86100
O1605       O  0.97391555  0.50860816  0.42133948    -0.83100
C1606       C  0.95584278  0.49912707  0.44323349     0.97400
O1607       O  0.96594061  0.01673146  0.46494338    -0.83200
O1608       O  0.00633397  0.05860458  0.50656459    -0.85800
C1609       C  0.51649019  0.04509929  0.52150401     1.01900
O1610       O  0.53142683  0.03454300  0.50750651    -0.78600
O1611       O  0.56079627  0.02283746  0.46226635    -0.78800
C1612       C  0.54286329  0.49988723  0.45128342     1.01900
O1613       O  0.56691314  0.05897821  0.40919560    -0.86100
O1614       O  0.02488764  0.07388149  0.40077667    -0.83100
C1615       C  0.00572081  0.08306486  0.40659992     0.97400
O1616       O  0.98666166  0.07005889  0.42717064    -0.83200
O1617       O  0.52743198  0.10731642  0.46844642    -0.85800
C1618       C  0.55189503  0.11907939  0.48383434     1.01900
O1619       O  0.56223720  0.10149051  0.49268111    -0.78600
O1620       O  0.58818210  0.08995457  0.44664772    -0.78700
C1621       C  0.58917064  0.08457895  0.42052281     1.01800
Cr1622     Cr  0.52013031  0.03560922  0.41923659     1.93700
Cr1623     Cr  0.99976079  0.06215800  0.46522680     1.93200
Cr1624     Cr  0.55806815  0.06115518  0.47547011     1.39100
O1625       O  0.52466225  0.05214368  0.45416596    -1.23800
O1626       O  0.91436112  0.45242199  0.41946568    -0.86100
O1627       O  0.92501354  0.40390218  0.43062519    -0.83100
C1628       C  0.92428064  0.38153357  0.44457799     0.97400
O1629       O  0.89879380  0.36027412  0.45651233    -0.83200
O1630       O  0.88625418  0.38817181  0.50313861    -0.85800
C1631       C  0.87718439  0.40422069  0.51765694     1.01900
O1632       O  0.86512870  0.41858941  0.50547845    -0.78600
O1633       O  0.90772566  0.46004170  0.46474154    -0.78800
C1634       C  0.92445521  0.46906525  0.44233228     1.01900
O1635       O  0.85115658  0.40320128  0.39806882    -0.86100
O1636       O  0.86590209  0.35679043  0.40396035    -0.83100
C1637       C  0.83965208  0.33431555  0.41350099     0.97400
O1638       O  0.83252966  0.33444365  0.43928517    -0.83200
O1639       O  0.82063020  0.35857504  0.48650892    -0.85800
C1640       C  0.80352301  0.36954320  0.47801060     1.01900
O1641       O  0.81587377  0.39541825  0.46431273    -0.78600
O1642       O  0.85487999  0.44125950  0.42619435    -0.78700
C1643       C  0.84245841  0.42282467  0.40472595     1.01800
Cr1644     Cr  0.88786356  0.40377263  0.41557101     1.93700
Cr1645     Cr  0.86062882  0.36302077  0.46971897     1.93200
Cr1646     Cr  0.86192676  0.42698210  0.46414415     1.39100
O1647       O  0.87045884  0.39792334  0.45002202    -1.23800
C1648       C  0.70349518  0.21301384  0.30434232     0.02400
C1649       C  0.73355482  0.23458967  0.31655879    -0.13800
C1650       C  0.73961751  0.23190868  0.34521256    -0.00100
C1651       C  0.71761511  0.20471297  0.36045408    -0.12300
C1652       C  0.68837076  0.18168947  0.34832722     0.02400
C1653       C  0.68113517  0.18646727  0.32058989    -0.11700
H1654       H  0.75166749  0.25460059  0.30449092     0.08000
H1655       H  0.72251210  0.20252362  0.38251874     0.05500
H1656       H  0.65752723  0.17016352  0.31220309     0.05400
C1657       C  0.86792297  0.03857726  0.97204686     0.02400
C1658       C  0.84447575  0.01331486  0.98839235    -0.13800
C1659       C  0.85029793  0.01032468  0.01716280    -0.00100
C1660       C  0.87915344  0.03406907  0.02974515    -0.12300
C1661       C  0.90222350  0.06018855  0.01387002     0.02400
C1662       C  0.89689433  0.06125225  0.98477251    -0.11700
H1663       H  0.81805222  0.49832608  0.98324575     0.08000
H1664       H  0.88312901  0.03277394  0.05222991     0.05500
H1665       H  0.91501289  0.08062369  0.97205553     0.05400
C1666       C  0.86497494  0.24041683  0.97431510     0.02400
C1667       C  0.89284572  0.24519901  0.98711327    -0.13800
C1668       C  0.89886606  0.25363850  0.01611347    -0.00100
C1669       C  0.87715219  0.25837245  0.03234764    -0.12300
C1670       C  0.84880286  0.25311601  0.01988377     0.02400
C1671       C  0.84282213  0.24390633  0.99098867    -0.11700
H1672       H  0.90980619  0.24195103  0.97458146     0.08000
H1673       H  0.88143648  0.26435624  0.05485652     0.05500
H1674       H  0.82069211  0.23922043  0.98151936     0.05400
C1675       C  0.78669517  0.13360058  0.17991319     0.79500
N1676       N  0.76971683  0.10096703  0.18124424    -0.78800
C1677       C  0.78461167  0.08383375  0.18064796     0.81900
N1678       N  0.81678700  0.09934883  0.17844736    -0.78800
C1679       C  0.83400393  0.13197916  0.17730067     0.82000
N1680       N  0.81880168  0.14883731  0.17732684    -0.80500
O1681       O  0.57298049  0.28303902  0.08767075    -0.86100
O1682       O  0.58650900  0.23577560  0.09538266    -0.83100
C1683       C  0.58763217  0.21461140  0.10975595     0.97400
O1684       O  0.56350426  0.19348130  0.12344586    -0.83200
O1685       O  0.54497505  0.21635761  0.17095181    -0.85800
C1686       C  0.53357528  0.23091764  0.18468358     1.01900
O1687       O  0.52145291  0.24426515  0.17130485    -0.78600
O1688       O  0.56473744  0.28801177  0.13315784    -0.78800
C1689       C  0.58182735  0.29871284  0.11113238     1.01900
O1690       O  0.51038908  0.23278507  0.06469915    -0.86100
O1691       O  0.52849462  0.18884596  0.06822489    -0.83100
C1692       C  0.50468466  0.16384278  0.07802678     0.97400
O1693       O  0.49766854  0.16187343  0.10405871    -0.83200
O1694       O  0.98199801  0.18358347  0.14770549    -0.85800
C1695       C  0.96443294  0.19421027  0.13949279     1.00400
O1696       O  0.97613296  0.22040766  0.12618000    -0.78600
O1697       O  0.51373444  0.26980932  0.09358644    -0.78700
C1698       C  0.50167300  0.25229085  0.07172117     1.01800
Cr1699     Cr  0.54823964  0.23459639  0.08168366     1.93700
Cr1700     Cr  0.52271195  0.19167143  0.13551273     1.93200
Cr1701     Cr  0.51974695  0.25363872  0.13068505     1.39100
O1702       O  0.53062274  0.22646580  0.11618694    -1.23800
O1703       O  0.68050700  0.33050278  0.09949134    -0.86100
O1704       O  0.63023904  0.34046115  0.09133800    -0.83100
C1705       C  0.61212574  0.32959292  0.11302153     0.97400
O1706       O  0.61979036  0.34489398  0.13648117    -0.83200
O1707       O  0.65860422  0.38481808  0.17958343    -0.85800
C1708       C  0.67176194  0.37250077  0.19278391     1.01900
O1709       O  0.68839562  0.36355020  0.17910439    -0.78600
O1710       O  0.71797540  0.35305775  0.13232007    -0.78800
C1711       C  0.70087640  0.32989013  0.11543098     1.01900
O1712       O  0.72449986  0.39360451  0.07944157    -0.86100
O1713       O  0.67712183  0.40689988  0.07450370    -0.83100
C1714       C  0.65666731  0.41413506  0.08180375     0.97400
O1715       O  0.63886857  0.40030280  0.10274329    -0.83200
O1716       O  0.68448286  0.43734257  0.14314526    -0.85800
C1717       C  0.70912603  0.44822619  0.15847392     1.01900
O1718       O  0.71963309  0.43033101  0.16560999    -0.78600
O1719       O  0.74634067  0.42100912  0.11869750    -0.78700
C1720       C  0.74705871  0.41758366  0.09209116     1.01800
Cr1721     Cr  0.67820229  0.36893365  0.08920944     1.93700
Cr1722     Cr  0.65271754  0.39088919  0.13926191     1.93200
Cr1723     Cr  0.71522301  0.39087937  0.14684735     1.39100
O1724       O  0.68204754  0.38299450  0.12524055    -1.23800
O1725       O  0.64075232  0.23707012  0.09562154    -0.86100
O1726       O  0.70124094  0.28684168  0.09066068    -0.83100
C1727       C  0.70466324  0.30146624  0.11429011     0.97400
O1728       O  0.71145378  0.29189947  0.13656646    -0.83200
O1729       O  0.71029194  0.24752518  0.17514183    -0.85800
C1730       C  0.68323292  0.23105860  0.18652699     1.01900
O1731       O  0.65874804  0.21611610  0.17117999    -0.78600
O1732       O  0.62102494  0.19419974  0.12285858    -0.78800
C1733       C  0.61802060  0.21517533  0.10966880     1.01900
O1734       O  0.65686156  0.19375853  0.06798412    -0.86100
O1735       O  0.71894496  0.24054196  0.06845558    -0.83100
C1736       C  0.74663530  0.26006803  0.07717470     0.97400
O1737       O  0.75004145  0.27740895  0.09883970    -0.83200
O1738       O  0.73964593  0.22829749  0.13450631    -0.85800
C1739       C  0.72399395  0.20069685  0.14548651     1.01900
O1740       O  0.69449059  0.18764405  0.15103792    -0.78600
O1741       O  0.65872909  0.16625239  0.10346285    -0.78700
C1742       C  0.65555142  0.16881793  0.07729561     1.01800
Cr1743     Cr  0.68023118  0.23904748  0.08342456     1.93700
Cr1744     Cr  0.72472971  0.25928937  0.13488797     1.93200
Cr1745     Cr  0.66031297  0.19415550  0.13555396     1.39100
O1746       O  0.68795708  0.23061374  0.11817558    -1.23800
C1747       C  0.67768836  0.04838329  0.97363279     0.02400
C1748       C  0.67587302  0.02350484  0.98997862    -0.13800
C1749       C  0.66216941  0.01697813  0.01742999    -0.00100
C1750       C  0.65427834  0.03908896  0.02957464    -0.12300
C1751       C  0.65720244  0.06525973  0.01400461     0.02400
C1752       C  0.66789410  0.06870865  0.98550764    -0.11700
H1753       H  0.68335652  0.51003031  0.98051760     0.08000
H1754       H  0.64627659  0.03635062  0.05136143     0.05500
H1755       H  0.66885449  0.08737259  0.97236057     0.05400
C1756       C  0.65211748  0.09073067  0.02788408    -0.06900
C1757       C  0.67237457  0.12310983  0.01994575    -0.18000
C1758       C  0.67097133  0.14846098  0.03334215     0.10300
C1759       C  0.65136983  0.14242901  0.05758166    -0.06800
C1760       C  0.63039224  0.11024476  0.06519451    -0.18000
C1761       C  0.62921941  0.08445124  0.04970494     0.10400
S1762       S  0.69601008  0.18807230  0.01907825    -0.33000
S1763       S  0.59654638  0.04466730  0.05785223    -0.33000
H1764       H  0.59419757  0.03211195  0.03009561     0.28400
H1765       H  0.67085451  0.19404653  0.01658714     0.28400
H1766       H  0.69008346  0.12917644  0.00337262     0.19000
H1767       H  0.61431821  0.10513696  0.08308412     0.19000
C1768       C  0.65343755  0.43849120  0.06569368    -0.06900
C1769       C  0.65242168  0.43645140  0.03594966    -0.18000
C1770       C  0.65037883  0.45934218  0.01967261     0.10300
C1771       C  0.65458375  0.48817280  0.03273206    -0.06800
C1772       C  0.65545163  0.48983374  0.06279914    -0.18000
C1773       C  0.65243352  0.46440769  0.07914227     0.10400
S1774       S  0.63787592  0.44744848  0.98340056    -0.33000
S1775       S  0.64681445  0.46644010  0.11690917    -0.33000
H1776       H  0.61833359  0.43631389  0.11746455     0.28400
H1777       H  0.61763762  0.46017357  0.98398401     0.28400
H1778       H  0.65107404  0.41564067  0.02538909     0.19000
H1779       H  0.66383523  0.01120741  0.07532440     0.19000
C1780       C  0.74038534  0.18371453  0.15355412    -0.06900
C1781       C  0.76938484  0.20074711  0.16823422    -0.18000
C1782       C  0.78418586  0.18485933  0.17891709     0.10300
C1783       C  0.77004041  0.15120690  0.17423150    -0.06800
C1784       C  0.74070462  0.13431228  0.15992770    -0.18000
C1785       C  0.72616013  0.15019210  0.14917544     0.10400
S1786       S  0.82021551  0.20874115  0.19920756    -0.33000
S1787       S  0.69089359  0.12677133  0.12792969    -0.33000
H1788       H  0.70162685  0.14992731  0.10633453     0.28400
H1789       H  0.81387576  0.18414685  0.21847465     0.28400
H1790       H  0.78003098  0.22640816  0.17223619     0.19000
H1791       H  0.72972281  0.10871078  0.15551272     0.19000
C1792       C  0.72676064  0.48258015  0.16718072    -0.06900
C1793       C  0.73026483  0.00417668  0.14457068    -0.18000
C1794       C  0.74779787  0.03723375  0.14964212     0.10300
C1795       C  0.76589988  0.04919614  0.17484233    -0.06800
C1796       C  0.76637912  0.02780269  0.19424335    -0.18000
C1797       C  0.74790713  0.49472016  0.19078508     0.10400
S1798       S  0.74722247  0.06277859  0.12231664    -0.33000
S1799       S  0.75196889  0.46962062  0.21627215    -0.33000
H1800       H  0.71946714  0.44627711  0.21658755     0.28400
H1801       H  0.77928024  0.08742490  0.12540818     0.28400
H1802       H  0.71777139  0.99547274  0.12451760     0.19000
H1803       H  0.78024097  0.03708070  0.21363003     0.19000
C1804       C  0.86771075  0.14829224  0.16920363    -0.06900
C1805       C  0.87713912  0.16870114  0.14573959    -0.18000
C1806       C  0.90781822  0.18254385  0.13463073     0.10300
C1807       C  0.93040681  0.17700830  0.14784796    -0.06800
C1808       C  0.92074119  0.15623592  0.17130757    -0.18000
C1809       C  0.88973164  0.14194412  0.18214938     0.10400
S1810       S  0.91554181  0.20509852  0.10251270    -0.33000
S1811       S  0.88017494  0.11701550  0.21312122    -0.33000
H1812       H  0.85788906  0.12434994  0.22463086     0.28400
H1813       H  0.93103413  0.19038108  0.08946616     0.28400
H1814       H  0.85996702  0.17277966  0.13508850     0.19000
H1815       H  0.93769658  0.15187755  0.18196568     0.19000
C1816       C  0.82400452  0.25480563  0.03711944    -0.06900
C1817       C  0.82930765  0.28487871  0.04682952    -0.18000
C1818       C  0.80471002  0.28781486  0.05972035     0.10300
C1819       C  0.77417866  0.26001009  0.06335915    -0.06800
C1820       C  0.76962622  0.22992044  0.05475914    -0.18000
C1821       C  0.79390433  0.22699947  0.04177238     0.10400
S1822       S  0.81340141  0.32767602  0.06978286    -0.33000
S1823       S  0.78488289  0.18694213  0.03171760    -0.33000
H1824       H  0.81596396  0.19284206  0.03531441     0.28400
H1825       H  0.78335284  0.32246979  0.06213088     0.28400
H1826       H  0.85233869  0.30635336  0.04327344     0.19000
H1827       H  0.74699598  0.20817177  0.05879905     0.19000
C1828       C  0.92642174  0.25430954  0.02962325    -0.06900
C1829       C  0.95184375  0.28348458  0.04019470    -0.18000
C1830       C  0.97891593  0.28493562  0.05202401     0.10300
C1831       C  0.98068014  0.25662483  0.05295512    -0.06800
C1832       C  0.95587612  0.22797095  0.04087815    -0.18000
C1833       C  0.92841713  0.22625075  0.03037654     0.10400
S1834       S  0.01157127  0.32320876  0.06455085    -0.33000
S1835       S  0.89549461  0.18703381  0.02040277    -0.33000
H1836       H  0.87145798  0.19267461  0.03024471     0.28400
H1837       H  0.99744593  0.34161186  0.05900378     0.28400
H1838       H  0.95046757  0.30508592  0.03897012     0.19000
H1839       H  0.95660158  0.20599121  0.04178219     0.19000
C1840       C  0.77416881  0.44238835  0.07514555    -0.06900
C1841       C  0.78445324  0.43284070  0.05078844    -0.18000
C1842       C  0.80887964  0.45559521  0.03331134     0.10300
C1843       C  0.82285378  0.48887291  0.03972803    -0.06800
C1844       C  0.81297108  0.49833557  0.06425610    -0.18000
C1845       C  0.78883592  0.47571498  0.08175800     0.10400
S1846       S  0.82171308  0.44053858  0.00376711    -0.33000
S1847       S  0.77626500  0.49143754  0.11074919    -0.33000
H1848       H  0.74369384  0.47178024  0.10414449     0.28400
H1849       H  0.85370517  0.46586682  0.00415622     0.28400
H1850       H  0.77363438  0.40742864  0.04549636     0.19000
H1851       H  0.82895598  0.01967903  0.06651520     0.19000
C1852       C  0.93108297  0.08717290  0.02790342    -0.06900
C1853       C  0.94852584  0.08015577  0.04712581    -0.18000
C1854       C  0.97491573  0.10479484  0.06179616     0.10300
C1855       C  0.98471605  0.13730776  0.05676225    -0.06800
C1856       C  0.96854716  0.14438666  0.03646943    -0.18000
C1857       C  0.94135513  0.11996186  0.02285737     0.10400
S1858       S  0.99501015  0.09332561  0.08673184    -0.33000
S1859       S  0.91915674  0.13266683  0.00192828    -0.33000
H1860       H  0.88906452  0.10825727  0.01154911     0.28400
H1861       H  0.02469293  0.12218931  0.08522768     0.28400
H1862       H  0.94135075  0.05529177  0.05100859     0.19000
H1863       H  0.97549285  0.16927071  0.03305579     0.19000
C1864       C  0.69489361  0.21828618  0.27507103    -0.06900
C1865       C  0.67710828  0.19139234  0.25694775    -0.18000
C1866       C  0.67003570  0.19483943  0.22873756     0.10300
C1867       C  0.68187517  0.22600141  0.21770256    -0.06800
C1868       C  0.69867453  0.25281292  0.23586704    -0.18000
C1869       C  0.70431320  0.24930457  0.26445096     0.10400
S1870       S  0.64840952  0.15929095  0.20633806    -0.33000
S1871       S  0.72302151  0.28549028  0.28608713    -0.33000
H1872       H  0.70459182  0.27056255  0.31047959     0.28400
H1873       H  0.63944620  0.13646052  0.22802773     0.28400
H1874       H  0.66981941  0.16754622  0.26447753     0.19000
H1875       H  0.70776947  0.27679794  0.22759271     0.19000
C1876       C  0.81552799  0.30855127  0.39457130    -0.06900
C1877       C  0.78355558  0.29930088  0.39950422    -0.18000
C1878       C  0.75890368  0.27563361  0.38286596     0.10300
C1879       C  0.76582235  0.25971571  0.36088512    -0.06800
C1880       C  0.79781971  0.26950525  0.35514989    -0.18000
C1881       C  0.82272390  0.29361331  0.37185159     0.10400
S1882       S  0.71907585  0.26717653  0.39076010    -0.33000
S1883       S  0.86272016  0.30283543  0.36417180    -0.33000
H1884       H  0.87242808  0.30727737  0.39283545     0.28400
H1885       H  0.70771880  0.25926164  0.36264681     0.28400
H1886       H  0.77765705  0.31112916  0.41628773     0.19000
H1887       H  0.80332139  0.25748526  0.33828135     0.19000
C1888       C  0.61622191  0.10911196  0.40301338    -0.06900
C1889       C  0.62389305  0.09984417  0.37688408    -0.18000
C1890       C  0.64769515  0.12275092  0.35876343     0.10300
C1891       C  0.66370901  0.15577962  0.36653912    -0.06800
C1892       C  0.65619352  0.16493395  0.39257590    -0.18000
C1893       C  0.63326497  0.14233031  0.41090155     0.10400
S1894       S  0.65836631  0.10956251  0.32645295    -0.33000
S1895       S  0.62599109  0.15837234  0.44316587    -0.33000
H1896       H  0.63718403  0.14301393  0.46075577     0.28400
H1897       H  0.63536802  0.07659124  0.32876471     0.28400
H1898       H  0.61129660  0.07459225  0.37073187     0.19000
H1899       H  0.66817301  0.19023990  0.39864311     0.19000
C1900       C  0.60262478  0.21850364  0.50935392    -0.06900
C1901       C  0.58132260  0.20852808  0.48652856    -0.18000
C1902       C  0.56414387  0.17633674  0.47772159     0.10300
C1903       C  0.56820866  0.15338006  0.49250921    -0.06800
C1904       C  0.58890605  0.16348963  0.51609903    -0.18000
C1905       C  0.60625442  0.19592535  0.52459422     0.10400
S1906       S  0.53920403  0.16619209  0.44646725    -0.33000
S1907       S  0.63220748  0.20828688  0.55518132    -0.33000
H1908       H  0.62537898  0.17731661  0.56268054     0.28400
H1909       H  0.53935701  0.19531175  0.44485107     0.28400
H1910       H  0.57918921  0.22643074  0.47479358     0.19000
H1911       H  0.59162455  0.14597755  0.52784146     0.19000
C1912       C  0.70457852  0.31881741  0.50273720    -0.06900
C1913       C  0.71523816  0.34248147  0.48177497    -0.18000
C1914       C  0.74702691  0.35905566  0.47268395     0.10300
C1915       C  0.76910197  0.35227510  0.48543160    -0.06800
C1916       C  0.75806525  0.32814073  0.50619318    -0.18000
C1917       C  0.72626298  0.31151561  0.51500214     0.10400
S1918       S  0.75806761  0.38788811  0.44439361    -0.33000
S1919       S  0.71532075  0.28225540  0.54272943    -0.33000
H1920       H  0.69333434  0.28880375  0.55619181     0.28400
H1921       H  0.72709913  0.37960644  0.43635036     0.28400
H1922       H  0.69832592  0.34759566  0.47210133     0.19000
H1923       H  0.77445207  0.32251670  0.51622929     0.19000
C1924       C  0.57230784  0.35045906  0.49850493    -0.06900
C1925       C  0.60321143  0.36828959  0.50973237    -0.18000
C1926       C  0.61962705  0.35316500  0.51798539     0.10300
C1927       C  0.60526020  0.31943665  0.51403490    -0.06800
C1928       C  0.57368152  0.30156791  0.50407698    -0.18000
C1929       C  0.55727779  0.31665747  0.49609880     0.10400
S1930       S  0.65825799  0.37826044  0.53399710    -0.33000
S1931       S  0.51873684  0.29182524  0.48002051    -0.33000
H1932       H  0.52896925  0.30874276  0.45429121     0.28400
H1933       H  0.65461940  0.35492667  0.55364172     0.28400
H1934       H  0.61455107  0.39421377  0.51238800     0.19000
H1935       H  0.56214910  0.27573810  0.50066988     0.19000
C1936       C  0.00796034  0.16289508  0.36361548    -0.06900
C1937       C  0.52626709  0.15268289  0.35849903    -0.18000
C1938       C  0.52551924  0.12627678  0.37116921     0.10300
C1939       C  0.00631958  0.10960995  0.39016439    -0.06800
C1940       C  0.98144906  0.11596840  0.39422118    -0.18000
C1941       C  0.98177267  0.14194169  0.38098648     0.10400
S1942       S  0.55685015  0.11821668  0.36155399    -0.33000
S1943       S  0.94756287  0.14628219  0.38654614    -0.33000
H1944       H  0.94810994  0.15799049  0.35919312     0.28400
H1945       H  0.57425421  0.14423932  0.34311066     0.28400
H1946       H  0.54558721  0.16759981  0.34409912     0.19000
H1947       H  0.96138535  0.10047094  0.40775357     0.19000
C1948       C  0.00359582  0.26506827  0.36654995    -0.06900
C1949       C  0.97799649  0.25363062  0.38603001    -0.18000
C1950       C  0.97164996  0.27481474  0.40157672     0.10300
C1951       C  0.99080533  0.30832214  0.39731496    -0.06800
C1952       C  0.52408022  0.32272791  0.38325087    -0.18000
C1953       C  0.52963483  0.30030922  0.36909315     0.10400
S1954       S  0.93883171  0.25770061  0.42649491    -0.33000
S1955       S  0.56809760  0.31570176  0.35227336    -0.33000
H1956       H  0.57048318  0.28846095  0.35755675     0.28400
H1957       H  0.93263740  0.28305457  0.42546965     0.28400
H1958       H  0.96272024  0.22792955  0.38918161     0.19000
H1959       H  0.54253634  0.34801636  0.38303741     0.19000
C1960       C  0.02583484  0.22540721  0.27445591    -0.06900
C1961       C  0.00354478  0.22785147  0.25800482    -0.18000
C1962       C  0.00587277  0.22965352  0.22830741     0.10300
C1963       C  0.53111797  0.23029029  0.21645687    -0.06800
C1964       C  0.55347519  0.22772075  0.23303803    -0.18000
C1965       C  0.55122376  0.22656825  0.26299019     0.10400
S1966       S  0.97429386  0.23061075  0.20926024    -0.33000
S1967       S  0.58222901  0.22532959  0.28235318    -0.33000
H1968       H  0.58045926  0.24149641  0.30690600     0.28400
H1969       H  0.95600786  0.22989862  0.23292141     0.28400
H1970       H  0.98359083  0.22751585  0.26863313     0.19000
H1971       H  0.57308898  0.22710794  0.22265702     0.19000
C1972       C  0.81587447  0.42186402  0.38872513    -0.06900
C1973       C  0.79236374  0.39183018  0.37744209    -0.18000
C1974       C  0.76382624  0.38715991  0.36640611     0.10300
C1975       C  0.75876748  0.41339910  0.36525000    -0.06800
C1976       C  0.78259318  0.44371187  0.37566570    -0.18000
C1977       C  0.81105875  0.44827628  0.38716872     0.10400
S1978       S  0.73387789  0.34647969  0.35640520    -0.33000
S1979       S  0.84051297  0.48845742  0.39869438    -0.33000
H1980       H  0.86683218  0.48594306  0.39002110     0.28400
H1981       H  0.70767756  0.34891237  0.36559872     0.28400
H1982       H  0.79521978  0.37108948  0.37894150     0.19000
H1983       H  0.77910620  0.46407600  0.37457547     0.19000
C1984       C  0.61410062  0.42946501  0.40622397    -0.06900
C1985       C  0.62681401  0.41263428  0.41925865    -0.18000
C1986       C  0.64860249  0.40664718  0.40494533     0.10300
C1987       C  0.65914553  0.41900006  0.37728743    -0.06800
C1988       C  0.64748781  0.43726678  0.36490120    -0.18000
C1989       C  0.62495203  0.44235505  0.37892895     0.10400
S1990       S  0.65936527  0.38046859  0.42209912    -0.33000
S1991       S  0.61014944  0.46450467  0.36058382    -0.33000
H1992       H  0.60173387  0.47555296  0.38518862     0.28400
H1993       H  0.65907873  0.36388301  0.39703601     0.28400
H1994       H  0.61793566  0.40198128  0.43994447     0.19000
H1995       H  0.65546098  0.44702240  0.34378141     0.19000
C1996       C  0.67102618  0.37349208  0.22456908    -0.06900
C1997       C  0.67931869  0.35442726  0.24030413    -0.18000
C1998       C  0.68313713  0.35820561  0.27002451     0.10300
C1999       C  0.68141285  0.38329563  0.28420499    -0.06800
C2000       C  0.67171096  0.40124682  0.26879240    -0.18000
C2001       C  0.66527496  0.39600376  0.23963067     0.10400
S2002       S  0.68810836  0.32915679  0.28893528    -0.33000
S2003       S  0.65148747  0.42010043  0.22257328    -0.33000
H2004       H  0.65179178  0.43813663  0.24656590     0.28400
H2005       H  0.67310984  0.33070871  0.31419327     0.28400
H2006       H  0.68247611  0.33624834  0.22947671     0.19000
H2007       H  0.66986106  0.42016101  0.27967807     0.19000
C2008       C  0.85442038  0.39003365  0.60695857    -0.06900
C2009       C  0.87968167  0.42011568  0.59782353    -0.18000
C2010       C  0.88903794  0.42554543  0.56896781     0.10300
C2011       C  0.87346867  0.40009041  0.54885482    -0.06800
C2012       C  0.84872741  0.37006739  0.55807806    -0.18000
C2013       C  0.83837211  0.36506825  0.58639861     0.10400
S2014       S  0.92076067  0.46527040  0.55929219    -0.33000
S2015       S  0.80271752  0.32712171  0.59414666    -0.33000
H2016       H  0.79087230  0.33985190  0.61477179     0.28400
H2017       H  0.92836353  0.45652237  0.53295716     0.28400
H2018       H  0.89224698  0.43949897  0.61326130     0.19000
H2019       H  0.83576942  0.35080872  0.54258911     0.19000
C2020       C  0.68838497  0.05205546  0.94346506    -0.06900
C2021       C  0.71696720  0.07967688  0.93502228    -0.18000
C2022       C  0.72702161  0.08405461  0.90635971     0.10300
C2023       C  0.70838656  0.06009425  0.88587476    -0.06800
C2024       C  0.68037063  0.03227164  0.89457814    -0.18000
C2025       C  0.66978022  0.02837521  0.92284279     0.10400
S2026       S  0.76324495  0.12070275  0.89714250    -0.33000
S2027       S  0.63477116  0.49076709  0.92845711    -0.33000
H2028       H  0.63434984  0.47377664  0.90363131     0.28400
H2029       H  0.76959070  0.10859769  0.87203625     0.28400
H2030       H  0.73125803  0.09806934  0.95076821     0.19000
H2031       H  0.66551197  0.01446422  0.87869616     0.19000
C2032       C  0.84815277  0.21409413  0.88479631    -0.06900
C2033       C  0.84528857  0.23973276  0.89615421    -0.18000
C2034       C  0.85145619  0.24919284  0.92473614     0.10300
C2035       C  0.85905355  0.23169208  0.94351962    -0.06800
C2036       C  0.86116970  0.20548484  0.93262192    -0.18000
C2037       C  0.85590217  0.19655040  0.90359301     0.10400
S2038       S  0.85195006  0.28561918  0.93511365    -0.33000
S2039       S  0.85930545  0.16263562  0.89217036    -0.33000
H2040       H  0.83412451  0.15073601  0.87249350     0.28400
H2041       H  0.87767586  0.29676725  0.95411300     0.28400
H2042       H  0.84025927  0.25424521  0.88227279     0.19000
H2043       H  0.86685798  0.19176717  0.94688663     0.19000
C2044       C  0.83209989  0.27129534  0.72216623    -0.06900
C2045       C  0.80508166  0.27453937  0.72333032    -0.18000
C2046       C  0.80421591  0.29934121  0.70900012     0.10300
C2047       C  0.83135076  0.32237541  0.69373133    -0.06800
C2048       C  0.85817732  0.31905123  0.69232474    -0.18000
C2049       C  0.85898891  0.29398979  0.70612389     0.10400
S2050       S  0.76746342  0.29963248  0.71036065    -0.33000
S2051       S  0.89570510  0.29338009  0.70443731    -0.33000
H2052       H  0.91075614  0.31631755  0.68287921     0.28400
H2053       H  0.77069360  0.31275500  0.68315007     0.28400
H2054       H  0.78424973  0.25738758  0.73526763     0.19000
H2055       H  0.87911244  0.33697122  0.68101487     0.19000
C2056       C  0.85765216  0.06154284  0.88623397    -0.06900
C2057       C  0.88273353  0.05678078  0.89376905    -0.18000
C2058       C  0.88492984  0.04671228  0.92072454     0.10300
C2059       C  0.86249506  0.04272443  0.94183242    -0.06800
C2060       C  0.83698300  0.04695771  0.93453759    -0.18000
C2061       C  0.83422986  0.05617661  0.90689410     0.10400
S2062       S  0.91659895  0.03853015  0.92645097    -0.33000
S2063       S  0.80147189  0.06216159  0.89982558    -0.33000
H2064       H  0.81739514  0.08582739  0.87900477     0.28400
H2065       H  0.90015573  0.01462300  0.94699607     0.28400
H2066       H  0.90041449  0.05963537  0.87807314     0.19000
H2067       H  0.81981466  0.04425842  0.95073508     0.19000
C2068       C  0.82886047  0.42452850  0.70114277    -0.06900
C2069       C  0.84828566  0.43632014  0.72534135    -0.18000
C2070       C  0.84787257  0.45930960  0.74363492     0.10300
C2071       C  0.82732267  0.47116842  0.73782560    -0.06800
C2072       C  0.80811024  0.45970624  0.71331352    -0.18000
C2073       C  0.80829299  0.43623664  0.69521463     0.10400
S2074       S  0.87599899  0.47505603  0.77278106    -0.33000
S2075       S  0.78102564  0.42152369  0.66558030    -0.33000
H2076       H  0.77604411  0.39015820  0.66524954     0.28400
H2077       H  0.88944975  0.01113343  0.76125370     0.28400
H2078       H  0.86456397  0.42793565  0.72950380     0.19000
H2079       H  0.79240752  0.46863763  0.70850490     0.19000
C2080       C  0.93977275  0.38358531  0.84033488    -0.06900
C2081       C  0.91798246  0.37446367  0.81787503    -0.18000
C2082       C  0.90027160  0.34242515  0.80816329     0.10300
C2083       C  0.90404497  0.31861470  0.82173005    -0.06800
C2084       C  0.92592432  0.32802328  0.84435737    -0.18000
C2085       C  0.94382589  0.36014653  0.85371111     0.10400
S2086       S  0.87414787  0.33318948  0.77791219    -0.33000
S2087       S  0.97024211  0.37051896  0.88378084    -0.33000
H2088       H  0.96598108  0.33975275  0.88766602     0.28400
H2089       H  0.87937795  0.36433481  0.77401023     0.28400
H2090       H  0.91533738  0.39280890  0.80754553     0.19000
H2091       H  0.92878247  0.31004217  0.85509237     0.19000
C2092       C  0.54164524  0.48591989  0.84777393    -0.06900
C2093       C  0.55080346  0.00865540  0.82624426    -0.18000
C2094       C  0.58234310  0.02474306  0.81662474     0.10300
C2095       C  0.60387492  0.01618655  0.82769077    -0.06800
C2096       C  0.59503350  0.49463523  0.85024325    -0.18000
C2097       C  0.56337276  0.47854153  0.85978144     0.10400
S2098       S  0.59342776  0.05457262  0.78910071    -0.33000
S2099       S  0.55255323  0.44976588  0.88788627    -0.33000
H2100       H  0.02753193  0.44383280  0.89692969     0.28400
H2101       H  0.56377196  0.05240715  0.78623393     0.28400
H2102       H  0.53418574  0.01457114  0.81721966     0.19000
H2103       H  0.61141851  0.48862496  0.85966928     0.19000
C2104       C  0.94151938  0.48485540  0.85434996    -0.06900
C2105       C  0.96083617  0.01456660  0.83162406    -0.18000
C2106       C  0.94631172  0.03111610  0.82200071     0.10300
C2107       C  0.91472006  0.02103360  0.83094024    -0.06800
C2108       C  0.89337285  0.48704320  0.84788677    -0.18000
C2109       C  0.90798157  0.47016176  0.85670754     0.10400
S2110       S  0.96870581  0.06413586  0.79773022    -0.33000
S2111       S  0.88329256  0.43024806  0.87113434    -0.33000
H2112       H  0.85490460  0.43092962  0.87326282     0.28400
H2113       H  0.99307478  0.05770141  0.79112042     0.28400
H2114       H  0.98450519  0.02157380  0.82402871     0.19000
H2115       H  0.86761203  0.47500108  0.84796306     0.19000
C2116       C  0.99839033  0.31969567  0.70076010    -0.06900
C2117       C  0.99422318  0.32669290  0.72903317    -0.18000
C2118       C  0.97056274  0.30344421  0.74659909     0.10300
C2119       C  0.94953792  0.27188425  0.73548970    -0.06800
C2120       C  0.95419729  0.26471193  0.70725872    -0.18000
C2121       C  0.97859384  0.28795314  0.69004169     0.10400
S2122       S  0.96691838  0.31607918  0.78235270    -0.33000
S2123       S  0.98351181  0.27530127  0.65489506    -0.33000
H2124       H  0.51758090  0.30074977  0.65641544     0.28400
H2125       H  0.99580228  0.34586779  0.78296568     0.28400
H2126       H  0.00891759  0.35111109  0.73711285     0.19000
H2127       H  0.93872938  0.24075050  0.69846061     0.19000
C2128       C  0.59942256  0.42502730  0.69652643    -0.06900
C2129       C  0.59190680  0.44170578  0.71678503    -0.18000
C2130       C  0.61501031  0.46516711  0.73465482     0.10300
C2131       C  0.64704711  0.47271621  0.73238900    -0.06800
C2132       C  0.65491682  0.45664651  0.71148120    -0.18000
C2133       C  0.63129636  0.43236314  0.69390998     0.10400
S2134       S  0.60142753  0.48441795  0.75963454    -0.33000
S2135       S  0.64319370  0.41125962  0.66935992    -0.33000
H2136       H  0.61327587  0.38288623  0.66675436     0.28400
H2137       H  0.62564864  0.01200467  0.75795961     0.28400
H2138       H  0.56743850  0.43605340  0.71890661     0.19000
H2139       H  0.67933845  0.46220079  0.70953910     0.19000
C2140       C  0.52271888  0.38872636  0.61429570    -0.06900
C2141       C  0.50466656  0.36179022  0.59628682    -0.18000
C2142       C  0.49802291  0.36519807  0.56796734     0.10300
C2143       C  0.51106456  0.39634058  0.55657909    -0.06800
C2144       C  0.52766498  0.42321231  0.57478727    -0.18000
C2145       C  0.53214716  0.41972224  0.60370552     0.10400
S2146       S  0.47579056  0.32954012  0.54581259    -0.33000
S2147       S  0.54900828  0.45566989  0.62578553    -0.33000
H2148       H  0.53332265  0.43964126  0.65091772     0.28400
H2149       H  0.46694016  0.30677314  0.56754186     0.28400
H2150       H  0.49708603  0.33790387  0.60389043     0.19000
H2151       H  0.53778658  0.44718596  0.56623960     0.19000
C2152       C  0.64813245  0.08535238  0.72783554    -0.06900
C2153       C  0.62570210  0.05688306  0.71349735    -0.18000
C2154       C  0.59832166  0.05375925  0.70122914     0.10300
C2155       C  0.59335255  0.08007762  0.70215700    -0.06800
C2156       C  0.61580412  0.10872889  0.71608187    -0.18000
C2157       C  0.64320937  0.11180491  0.72858253     0.10400
S2158       S  0.57006105  0.01503502  0.68574011    -0.33000
S2159       S  0.67164395  0.15061312  0.74362369    -0.33000
H2160       H  0.69851730  0.14992868  0.73347233     0.28400
H2161       H  0.54281906  0.01697655  0.69169343     0.28400
H2162       H  0.62880894  0.03624699  0.71265909     0.19000
H2163       H  0.61249966  0.12926279  0.71635106     0.19000
C2164       C  0.99201303  0.08551742  0.69957804    -0.06900
C2165       C  0.96045253  0.06155270  0.69354430    -0.18000
C2166       C  0.93446646  0.06168672  0.70622468     0.10300
C2167       C  0.93990201  0.08610449  0.72670924    -0.06800
C2168       C  0.97163522  0.11025297  0.73266618    -0.18000
C2169       C  0.49874855  0.11085921  0.72124352     0.10400
S2170       S  0.89495058  0.03019524  0.69529861    -0.33000
S2171       S  0.53813577  0.14345574  0.73031776    -0.33000
H2172       H  0.55126686  0.14568251  0.70300960     0.28400
H2173       H  0.90372510  0.01064927  0.67993943     0.28400
H2174       H  0.95613295  0.04235596  0.67865563     0.19000
H2175       H  0.97640209  0.12929416  0.74793563     0.19000
C2176       C  0.53548973  0.06678930  0.61089790    -0.06900
C2177       C  0.53051592  0.03720084  0.60009801    -0.18000
C2178       C  0.52289660  0.02841873  0.57127553     0.10300
C2179       C  0.52019767  0.04966542  0.55281074    -0.06800
C2180       C  0.52550563  0.07930257  0.56379127    -0.18000
C2181       C  0.53369939  0.08831882  0.59220265     0.10400
S2182       S  0.00576280  0.48069122  0.55734744    -0.33000
S2183       S  0.54288690  0.12827532  0.60289638    -0.33000
H2184       H  0.56516898  0.13290184  0.62394134     0.28400
H2185       H  0.98825176  0.48055913  0.53375788     0.28400
H2186       H  0.53158131  0.02041726  0.61440021     0.19000
H2187       H  0.52480607  0.09650656  0.54975879     0.19000
C2188       C  0.54011360  0.57485437  0.64425543     0.02400
C2189       C  0.51860090  0.58099228  0.65880629    -0.13800
C2190       C  0.51997676  0.58530997  0.68856005    -0.00100
C2191       C  0.54431082  0.58447164  0.70363412    -0.12300
C2192       C  0.56681007  0.57948122  0.68900929     0.02400
C2193       C  0.56431958  0.57433872  0.65934942    -0.11700
H2194       H  0.50005011  0.58153243  0.64682801     0.08000
H2195       H  0.54537706  0.58687368  0.72665285     0.05500
H2196       H  0.58139982  0.57024397  0.64798233     0.05400
C2197       C  0.53273210  0.88194277  0.64070206     0.02400
C2198       C  0.51097669  0.85457900  0.65638777    -0.13800
C2199       C  0.51964321  0.84771212  0.68257114    -0.00100
C2200       C  0.54978915  0.86935782  0.69390452    -0.12300
C2201       C  0.57135652  0.89728335  0.67927422     0.02400
C2202       C  0.56339345  0.90265567  0.65214079    -0.11700
H2203       H  0.98598968  0.84324944  0.65002565     0.08000
H2204       H  0.55582779  0.86547822  0.71504086     0.05500
H2205       H  0.58079223  0.92365305  0.64058981     0.05400
C2206       C  0.95956593  0.96841834  0.85420663     0.79500
N2207       N  0.99172304  0.98330820  0.85571416    -0.78800
C2208       C  0.50524741  0.96618967  0.85236727     0.81900
N2209       N  0.98914979  0.93388319  0.85005382    -0.78800
C2210       C  0.95678111  0.91850999  0.84909662     0.82000
N2211       N  0.94218224  0.93597948  0.85045665    -0.80500
O2212       O  0.81163466  0.56695895  0.76911893    -0.86100
O2213       O  0.87196383  0.61421920  0.75865820    -0.83100
C2214       C  0.87854446  0.63212063  0.78074631     0.97400
O2215       O  0.88620557  0.62456640  0.80359257    -0.83200
O2216       O  0.88201336  0.58339013  0.84581441    -0.85800
C2217       C  0.85515332  0.56840088  0.85808765     1.01900
O2218       O  0.83002428  0.55321889  0.84348918    -0.78600
O2219       O  0.79131940  0.52377743  0.79567773    -0.78800
C2220       C  0.78841982  0.54470593  0.78221665     1.01900
O2221       O  0.82342453  0.51828387  0.74581787    -0.86100
O2222       O  0.88513000  0.56375011  0.74037201    -0.83100
C2223       C  0.91369038  0.58255468  0.74680589     0.97400
O2224       O  0.92009305  0.60178494  0.76778718    -0.83200
O2225       O  0.90889084  0.55728056  0.80872986    -0.85800
C2226       C  0.89443707  0.53363206  0.82518894     1.01900
O2227       O  0.86523744  0.52233335  0.83113309    -0.78600
O2228       O  0.83231646  0.99683519  0.77955617    -0.78700
C2229       C  0.82718336  0.49652694  0.75630979     1.01800
Cr2230     Cr  0.84887078  0.56561626  0.75610724     1.93700
Cr2231     Cr  0.89635256  0.58991546  0.80531165     1.93200
Cr2232     Cr  0.83130268  0.52663105  0.81143970     1.39100
O2233       O  0.85852349  0.56084193  0.79123268    -1.23800
O2234       O  0.85631499  0.66158509  0.76329458    -0.86100
O2235       O  0.80655622  0.67129670  0.75397797    -0.83100
C2236       C  0.78908271  0.66281085  0.77631726     0.97400
O2237       O  0.79746944  0.68062839  0.79830485    -0.83200
O2238       O  0.83734904  0.72356570  0.83922289    -0.85800
C2239       C  0.84889018  0.70976098  0.85297820     1.01900
O2240       O  0.86429396  0.69907465  0.83989713    -0.78600
O2241       O  0.89407757  0.68567366  0.79558790    -0.78800
C2242       C  0.87643408  0.66149335  0.77975123     1.01900
O2243       O  0.90167977  0.72405355  0.74053609    -0.86100
O2244       O  0.85491494  0.73632921  0.73311584    -0.83100
C2245       C  0.83557229  0.74532618  0.73874629     0.97400
O2246       O  0.81694397  0.73287091  0.75963555    -0.83200
O2247       O  0.86302789  0.77262628  0.79841128    -0.85800
C2248       C  0.88714911  0.78419771  0.81434559     1.01900
O2249       O  0.89667936  0.76609377  0.82384247    -0.78600
O2250       O  0.92296684  0.75267582  0.77923507    -0.78700
C2251       C  0.92408944  0.74875649  0.75286812     1.01800
Cr2252     Cr  0.85491467  0.69946966  0.75051174     1.93700
Cr2253     Cr  0.83075741  0.72631957  0.79782791     1.93200
Cr2254     Cr  0.89184747  0.72477737  0.80769804     1.39100
O2255       O  0.85916765  0.71627632  0.78545463    -1.23800
O2256       O  0.74711045  0.61443173  0.75513017    -0.86100
O2257       O  0.75827709  0.56622116  0.76670382    -0.83100
C2258       C  0.75815639  0.54421424  0.78078059     0.97400
O2259       O  0.73289100  0.52260139  0.79277347    -0.83200
O2260       O  0.72261055  0.55076872  0.84005441    -0.85800
C2261       C  0.71487745  0.56757216  0.85504928     1.01900
O2262       O  0.70359345  0.58298112  0.84353348    -0.78600
O2263       O  0.74374374  0.62312275  0.80075561    -0.78800
C2264       C  0.75853916  0.63191405  0.77733311     1.01900
O2265       O  0.68310986  0.56515833  0.73676929    -0.86100
O2266       O  0.69842653  0.51867832  0.74202411    -0.83100
C2267       C  0.67187164  0.49702657  0.75168795     0.97400
O2268       O  0.66440821  0.99584731  0.77627900    -0.83200
O2269       O  0.65622282  0.52178450  0.82614898    -0.85800
C2270       C  0.63967658  0.53414497  0.81969132     1.01900
O2271       O  0.65188180  0.55980770  0.80570238    -0.78600
O2272       O  0.68849734  0.60367027  0.76535960    -0.78700
C2273       C  0.67516484  0.58526752  0.74404679     1.01800
Cr2274     Cr  0.72055508  0.56576002  0.75276282     1.93700
Cr2275     Cr  0.69532201  0.52559987  0.80749373     1.93200
Cr2276     Cr  0.69790018  0.59044655  0.80270319     1.39100
O2277       O  0.70476063  0.56054337  0.78786971    -1.23800
C2278       C  0.84885143  0.88398842  0.63720472     0.02400
C2279       C  0.84665053  0.85731159  0.65094398    -0.13800
C2280       C  0.83715390  0.85089679  0.67956806    -0.00100
C2281       C  0.83146416  0.87257203  0.69508184    -0.12300
C2282       C  0.83433296  0.89995219  0.68207185     0.02400
C2283       C  0.84300723  0.90550314  0.65306307    -0.11700
H2284       H  0.85208427  0.84119577  0.63918323     0.08000
H2285       H  0.82539601  0.86848276  0.71751936     0.05500
H2286       H  0.84545397  0.92664224  0.64296020     0.05400
C2287       C  0.69881836  0.90051942  0.31345332     0.02400
C2288       C  0.67537931  0.90065768  0.33135987    -0.13800
C2289       C  0.68261466  0.91321114  0.35930475    -0.00100
C2290       C  0.71244068  0.92254163  0.37085405    -0.12300
C2291       C  0.73529386  0.92061515  0.35406707     0.02400
C2292       C  0.72933830  0.91229802  0.32504410    -0.11700
H2293       H  0.65136484  0.89140589  0.32372368     0.08000
H2294       H  0.71731144  0.92993050  0.39306674     0.05500
H2295       H  0.74870876  0.91462022  0.31196805     0.05400
C2296       C  0.01317989  0.71706368  0.30597259     0.02400
C2297       C  0.00718565  0.73871788  0.32114348    -0.13800
C2298       C  0.00213478  0.73626123  0.35075238    -0.00100
C2299       C  0.00083642  0.71013849  0.36483507    -0.12300
C2300       C  0.00441341  0.68684973  0.34953959     0.02400
C2301       C  0.01097403  0.69075222  0.32016026    -0.11700
H2302       H  0.00706090  0.75798399  0.30983196     0.08000
H2303       H  0.99743241  0.70808958  0.38773159     0.05500
H2304       H  0.01405985  0.67309910  0.30825757     0.05400
C2305       C  0.62478513  0.80474233  0.52013075     0.79500
N2306       N  0.65698448  0.82154869  0.51764629    -0.78800
C2307       C  0.67359838  0.80604996  0.51723652     0.81900
N2308       N  0.65761802  0.77327241  0.51802458    -0.78800
C2309       C  0.62532628  0.75630569  0.52034191     0.82000
N2310       N  0.60920266  0.77218696  0.52110394    -0.80500
O2311       O  0.97739826  0.90254837  0.43098458    -0.86100
O2312       O  0.53956823  0.95279520  0.42576285    -0.83100
C2313       C  0.54384315  0.96894453  0.44861635     0.97400
O2314       O  0.54931460  0.95989258  0.47179609    -0.83200
O2315       O  0.54498694  0.91639038  0.51260046    -0.85800
C2316       C  0.51727442  0.90161381  0.52314358     1.01900
O2317       O  0.99194679  0.88412886  0.50638668    -0.78600
O2318       O  0.95529487  0.85909536  0.45749981    -0.78800
C2319       C  0.95353588  0.88059889  0.44384357     1.01900
O2320       O  0.98986136  0.85530760  0.40678373    -0.86100
O2321       O  0.55446799  0.90378684  0.40662181    -0.83100
C2322       C  0.58225196  0.92339053  0.41499642     0.97400
O2323       O  0.58636590  0.94182538  0.43603363    -0.83200
O2324       O  0.57429137  0.89447201  0.47399582    -0.85800
C2325       C  0.55831658  0.86797615  0.48656451     1.01900
O2326       O  0.52895394  0.85606973  0.49232908    -0.78600
O2327       O  0.99339604  0.82994452  0.44328592    -0.78700
C2328       C  0.98978825  0.83134760  0.41704703     1.01800
Cr2329     Cr  0.51669341  0.90468776  0.42052211     1.93700
Cr2330     Cr  0.56075413  0.92622827  0.47232746     1.93200
Cr2331     Cr  0.99390643  0.85926677  0.47323511     1.39100
O2332       O  0.52391222  0.89763939  0.45581726    -1.23800
O2333       O  0.52054687  0.99752614  0.43240790    -0.86100
O2334       O  0.97502128  0.00912603  0.42011535    -0.83100
C2335       C  0.95729956  0.00007602  0.44228208     0.97400
O2336       O  0.96444484  0.51521982  0.46625300    -0.83200
O2337       O  0.00473296  0.55637566  0.50872090    -0.85800
C2338       C  0.51692413  0.54655369  0.52413044     1.01900
O2339       O  0.53195841  0.53593167  0.51040770    -0.78600
O2340       O  0.56216351  0.52460253  0.46574376    -0.78800
C2341       C  0.54171492  0.99802444  0.44780622     1.01900
O2342       O  0.57032374  0.56076877  0.41368417    -0.86100
O2343       O  0.02390694  0.57334170  0.40274705    -0.83100
C2344       C  0.00457735  0.58230968  0.40873566     0.97400
O2345       O  0.98571558  0.56940954  0.42947291    -0.83200
O2346       O  0.53070322  0.61051013  0.47206171    -0.85800
C2347       C  0.55499433  0.62174969  0.48773590     1.01900
O2348       O  0.56433151  0.60344205  0.49688065    -0.78600
O2349       O  0.59048651  0.59214541  0.45095086    -0.78700
C2350       C  0.59237974  0.58642719  0.42508272     1.01800
Cr2351     Cr  0.52329328  0.53865629  0.42218595     1.93700
Cr2352     Cr  0.99834226  0.56088039  0.46743959     1.93200
Cr2353     Cr  0.55971711  0.56304167  0.47916424     1.39100
O2354       O  0.52704577  0.55484214  0.45719351    -1.23800
O2355       O  0.91546129  0.95357490  0.41924233    -0.86100
O2356       O  0.92480111  0.90391048  0.42870495    -0.83100
C2357       C  0.92377103  0.88118150  0.44226751     0.97400
O2358       O  0.89804287  0.85977475  0.45380150    -0.83200
O2359       O  0.88731830  0.88700865  0.50180707    -0.85800
C2360       C  0.87954438  0.90357985  0.51715280     1.01900
O2361       O  0.86821802  0.91914083  0.50597631    -0.78600
O2362       O  0.91024254  0.96074934  0.46494568    -0.78800
C2363       C  0.92616971  0.96996477  0.44208354     1.01900
O2364       O  0.85205680  0.90691131  0.39871931    -0.86100
O2365       O  0.86450911  0.85857681  0.40234552    -0.83100
C2366       C  0.83785007  0.83674540  0.41178381     0.97400
O2367       O  0.83143983  0.83626965  0.43783289    -0.83200
O2368       O  0.82169699  0.85966508  0.48671708    -0.85800
C2369       C  0.80513635  0.87191722  0.48007245     1.01900
O2370       O  0.81759318  0.89809750  0.46668018    -0.78600
O2371       O  0.85701419  0.94444552  0.42839158    -0.78700
C2372       C  0.84463981  0.92730066  0.40628688     1.01800
Cr2373     Cr  0.88797598  0.90529904  0.41489499     1.93700
Cr2374     Cr  0.86072521  0.86336080  0.46837722     1.93200
Cr2375     Cr  0.86415902  0.92862660  0.46529804     1.39100
O2376       O  0.87120116  0.89909392  0.44971516    -1.23800
C2377       C  0.69402006  0.71650591  0.30618176     0.02400
C2378       C  0.72383544  0.74069562  0.31704914    -0.13800
C2379       C  0.73311034  0.73862761  0.34474403    -0.00100
C2380       C  0.71383488  0.71099115  0.36068993    -0.12300
C2381       C  0.68408136  0.68648120  0.35044729     0.02400
C2382       C  0.67406624  0.68992729  0.32340781    -0.11700
H2383       H  0.73943319  0.76154800  0.30437831     0.08000
H2384       H  0.72162604  0.70933636  0.38179444     0.05500
H2385       H  0.65042724  0.67227958  0.31592622     0.05400
C2386       C  0.86437037  0.53990689  0.97504474     0.02400
C2387       C  0.84090089  0.51592224  0.99231464    -0.13800
C2388       C  0.84714620  0.51447967  0.02124724    -0.00100
C2389       C  0.87603913  0.53879183  0.03314943    -0.12300
C2390       C  0.89964601  0.56328776  0.01614021     0.02400
C2391       C  0.89402494  0.56239985  0.98684340    -0.11700
H2392       H  0.82177329  0.99620752  0.97879895     0.08000
H2393       H  0.87991231  0.53865234  0.05582057     0.05500
H2394       H  0.91255026  0.57980503  0.97305411     0.05400
C2395       C  0.86003157  0.73169412  0.97502592     0.02400
C2396       C  0.88753528  0.73647441  0.98849502    -0.13800
C2397       C  0.89249743  0.74438142  0.01763411    -0.00100
C2398       C  0.86977961  0.74795529  0.03337312    -0.12300
C2399       C  0.84169413  0.74249004  0.02016663     0.02400
C2400       C  0.83703816  0.73438336  0.99101272    -0.11700
H2401       H  0.90526683  0.73420664  0.97625288     0.08000
H2402       H  0.87337290  0.75375678  0.05595294     0.05500
H2403       H  0.81556764  0.73042192  0.98067974     0.05400
C2404       C  0.78549833  0.63349345  0.18328423     0.79500
N2405       N  0.76884371  0.60092408  0.18435319    -0.78800
C2406       C  0.78382680  0.58398146  0.18300743     0.81900
N2407       N  0.81602738  0.59968215  0.18079820    -0.78800
C2408       C  0.83311739  0.63239912  0.18036439     0.82000
N2409       N  0.81764518  0.64904812  0.18082939    -0.80500
O2410       O  0.57361205  0.78354981  0.08858571    -0.86100
O2411       O  0.58607342  0.73602046  0.09787876    -0.83100
C2412       C  0.58580773  0.71344297  0.11105171     0.97400
O2413       O  0.56086571  0.69191944  0.12348149    -0.83200
O2414       O  0.54287545  0.71572148  0.17066549    -0.85800
C2415       C  0.53162134  0.73040267  0.18438949     1.01900
O2416       O  0.52004644  0.74440037  0.17114609    -0.78600
O2417       O  0.56491846  0.78842033  0.13389611    -0.78800
C2418       C  0.58258859  0.79890923  0.11215939     1.01900
O2419       O  0.51210108  0.73396476  0.06421950    -0.86100
O2420       O  0.52944530  0.68949356  0.06883864    -0.83100
C2421       C  0.50460518  0.66476897  0.07769791     0.97400
O2422       O  0.49592089  0.66285012  0.10324968    -0.83200
O2423       O  0.98122667  0.68532294  0.14967891    -0.85800
C2424       C  0.96366551  0.69602467  0.14171186     1.00400
O2425       O  0.97535654  0.72208821  0.12819885    -0.78600
O2426       O  0.51472035  0.77087919  0.09298770    -0.78700
C2427       C  0.50313240  0.75330773  0.07103265     1.01800
Cr2428     Cr  0.54889206  0.73525266  0.08243156     1.93700
Cr2429     Cr  0.52071818  0.69158332  0.13518215     1.93200
Cr2430     Cr  0.51944316  0.75448786  0.13050241     1.39100
O2431       O  0.52991926  0.72690896  0.11625184    -1.23800
O2432       O  0.68072324  0.82854102  0.09829853    -0.86100
O2433       O  0.63111239  0.83960583  0.09189747    -0.83100
C2434       C  0.61368004  0.82913261  0.11405090     0.97400
O2435       O  0.62269860  0.84437448  0.13754145    -0.83200
O2436       O  0.66465573  0.88629522  0.17915908    -0.85800
C2437       C  0.67755348  0.87320824  0.19163679     1.01900
O2438       O  0.69319824  0.86372109  0.17714398    -0.78600
O2439       O  0.71973529  0.85124146  0.12975824    -0.78800
C2440       C  0.70119755  0.82765236  0.11382790     1.01900
O2441       O  0.72492455  0.89085442  0.07629836    -0.86100
O2442       O  0.67806780  0.90519315  0.07344527    -0.83100
C2443       C  0.65789360  0.91254517  0.08140609     0.97400
O2444       O  0.64069738  0.89885771  0.10272933    -0.83200
O2445       O  0.68827732  0.93678938  0.14093344    -0.85800
C2446       C  0.71344581  0.94811980  0.15547820     1.01900
O2447       O  0.72454105  0.93058461  0.16238664    -0.78600
O2448       O  0.74875508  0.91885936  0.11474953    -0.78700
C2449       C  0.74833835  0.91483153  0.08815278     1.01800
Cr2450     Cr  0.67901252  0.86716250  0.08793195     1.93700
Cr2451     Cr  0.65623092  0.89052063  0.13886690     1.93200
Cr2452     Cr  0.71870344  0.89006776  0.14408177     1.39100
O2453       O  0.68469003  0.88203110  0.12375457    -1.23800
O2454       O  0.63874742  0.73560196  0.09780002    -0.86100
O2455       O  0.69973335  0.78329475  0.09003516    -0.83100
C2456       C  0.70325642  0.79831222  0.11338505     0.97400
O2457       O  0.70840094  0.78808500  0.13604810    -0.83200
O2458       O  0.70512936  0.74358779  0.17539750    -0.85800
C2459       C  0.67771493  0.72670548  0.18624347     1.01900
O2460       O  0.65373204  0.71060111  0.17054333    -0.78600
O2461       O  0.61740751  0.69012951  0.12162086    -0.78800
C2462       C  0.61546283  0.71287476  0.11058225     1.01900
O2463       O  0.65001404  0.68991906  0.06875919    -0.86100
O2464       O  0.71348315  0.73468391  0.06815993    -0.83100
C2465       C  0.74144794  0.75337225  0.07681234     0.97400
O2466       O  0.74587387  0.77112054  0.09855444    -0.83200
O2467       O  0.73555924  0.72412289  0.13550937    -0.85800
C2468       C  0.72000377  0.69658101  0.14631834     1.01900
O2469       O  0.69025208  0.68288433  0.15085733    -0.78600
O2470       O  0.65587802  0.66274397  0.10214642    -0.78700
C2471       C  0.65017435  0.66521579  0.07659434     1.01800
Cr2472     Cr  0.67625934  0.73529106  0.08381258     1.93700
Cr2473     Cr  0.72072034  0.75483353  0.13507028     1.93200
Cr2474     Cr  0.65636223  0.68955060  0.13482233     1.39100
O2475       O  0.68412913  0.72637694  0.11822211    -1.23800
C2476       C  0.67346120  0.54733292  0.97184658     0.02400
C2477       C  0.67255344  0.52325179  0.98877075    -0.13800
C2478       C  0.65803207  0.51626005  0.01588722    -0.00100
C2479       C  0.64841052  0.53736086  0.02723384    -0.12300
C2480       C  0.65054075  0.56291675  0.01118294     0.02400
C2481       C  0.66191765  0.56654346  0.98291491    -0.11700
H2482       H  0.68512662  0.00918816  0.98093370     0.08000
H2483       H  0.63987039  0.53444377  0.04884971     0.05500
H2484       H  0.66236669  0.58469958  0.96941123     0.05400
C2485       C  0.64454054  0.58797093  0.02465538    -0.06900
C2486       C  0.66403245  0.62042419  0.01651624    -0.18000
C2487       C  0.66286368  0.64552469  0.03071245     0.10300
C2488       C  0.64460497  0.63914730  0.05589762    -0.06800
C2489       C  0.62372779  0.60685867  0.06323735    -0.18000
C2490       C  0.62200942  0.58132676  0.04688234     0.10400
S2491       S  0.68655125  0.68528599  0.01629633    -0.33000
S2492       S  0.58918236  0.54141425  0.05441581    -0.33000
H2493       H  0.58737125  0.52922205  0.02658556     0.28400
H2494       H  0.66128078  0.69129574  0.01667711     0.28400
H2495       H  0.68116759  0.62682609  0.99938010     0.19000
H2496       H  0.60826264  0.60148548  0.08163873     0.19000
C2497       C  0.65461502  0.93713254  0.06583517    -0.06900
C2498       C  0.65232446  0.93497715  0.03611092    -0.18000
C2499       C  0.65122307  0.95872354  0.02030149     0.10300
C2500       C  0.65757562  0.98816128  0.03375094    -0.06800
C2501       C  0.65953003  0.98980476  0.06376367    -0.18000
C2502       C  0.65560249  0.96383093  0.07975470     0.10400
S2503       S  0.63757923  0.94761286  0.98414280    -0.33000
S2504       S  0.65159393  0.96636394  0.11772124    -0.33000
H2505       H  0.62290631  0.93649340  0.11911516     0.28400
H2506       H  0.61887935  0.96205786  0.98561981     0.28400
H2507       H  0.64952823  0.91367389  0.02526205     0.19000
H2508       H  0.65808300  0.51073703  0.07410431     0.19000
C2509       C  0.73702933  0.68064525  0.15520475    -0.06900
C2510       C  0.76582283  0.69867049  0.17009278    -0.18000
C2511       C  0.78154398  0.68389462  0.18112532     0.10300
C2512       C  0.76825790  0.65031931  0.17695234    -0.06800
C2513       C  0.73910729  0.63250867  0.16238874    -0.18000
C2514       C  0.72401296  0.64737995  0.15080980     0.10400
S2515       S  0.81763309  0.70904459  0.20097074    -0.33000
S2516       S  0.68987988  0.62317609  0.12841030    -0.33000
H2517       H  0.69971442  0.64694649  0.10745104     0.28400
H2518       H  0.81218277  0.68517664  0.22074451     0.28400
H2519       H  0.77569451  0.72427560  0.17379264     0.19000
H2520       H  0.72868992  0.60694073  0.15835408     0.19000
C2521       C  0.73046767  0.98247847  0.16383118    -0.06900
C2522       C  0.72507949  0.50440885  0.14912090    -0.18000
C2523       C  0.74408917  0.53747612  0.15342009     0.10300
C2524       C  0.76484405  0.54942070  0.17702190    -0.06800
C2525       C  0.76684727  0.52801865  0.19523859    -0.18000
C2526       C  0.74839272  0.99448021  0.18926874     0.10400
S2527       S  0.74229400  0.56290293  0.12667209    -0.33000
S2528       S  0.74828390  0.96874216  0.21664578    -0.33000
H2529       H  0.71564459  0.94574050  0.21381667     0.28400
H2530       H  0.77469757  0.58707995  0.12818769     0.28400
H2531       H  0.71067174  0.49581295  0.13009314     0.19000
H2532       H  0.78285663  0.53731634  0.21333196     0.19000
C2533       C  0.86700527  0.64924083  0.17242973    -0.06900
C2534       C  0.87691619  0.67215284  0.15087953    -0.18000
C2535       C  0.90748473  0.68644653  0.13941905     0.10300
C2536       C  0.92967803  0.67893224  0.15049734    -0.06800
C2537       C  0.91964427  0.65590375  0.17222281    -0.18000
C2538       C  0.88867278  0.64105519  0.18327810     0.10400
S2539       S  0.91536301  0.71198126  0.10929942    -0.33000
S2540       S  0.87872864  0.61281338  0.21174619    -0.33000
H2541       H  0.85718900  0.61977288  0.22553525     0.28400
H2542       H  0.92826161  0.69633017  0.09351128     0.28400
H2543       H  0.86011584  0.67779796  0.14172300     0.19000
H2544       H  0.93622374  0.64992511  0.18128195     0.19000
C2545       C  0.81672534  0.74471728  0.03655216    -0.06900
C2546       C  0.82361503  0.77468498  0.04804063    -0.18000
C2547       C  0.79966389  0.77879355  0.06066000     0.10300
C2548       C  0.76815206  0.75216818  0.06253476    -0.06800
C2549       C  0.76175004  0.72204628  0.05183049    -0.18000
C2550       C  0.78538688  0.71803595  0.03887554     0.10400
S2551       S  0.81052975  0.81878869  0.07256549    -0.33000
S2552       S  0.77395373  0.67803296  0.02616010    -0.33000
H2553       H  0.80380176  0.68104501  0.03044701     0.28400
H2554       H  0.78205876  0.81644979  0.06351894     0.28400
H2555       H  0.84753976  0.79534134  0.04608199     0.19000
H2556       H  0.73817546  0.70102462  0.05427999     0.19000
C2557       C  0.92072803  0.74692335  0.03154191    -0.06900
C2558       C  0.94483615  0.77684355  0.04221171    -0.18000
C2559       C  0.97290935  0.78043325  0.05390923     0.10300
C2560       C  0.97700955  0.75350165  0.05472466    -0.06800
C2561       C  0.95326451  0.72397799  0.04286834    -0.18000
C2562       C  0.92492677  0.72019776  0.03227010     0.10400
S2563       S  0.00384604  0.81974018  0.06630295    -0.33000
S2564       S  0.89396055  0.68017615  0.02169492    -0.33000
H2565       H  0.86823919  0.68371602  0.03029296     0.28400
H2566       H  0.98753489  0.83609898  0.06111268     0.28400
H2567       H  0.94173668  0.79742089  0.04099407     0.19000
H2568       H  0.95565519  0.70293643  0.04379838     0.19000
C2569       C  0.77526665  0.93902993  0.07049625    -0.06900
C2570       C  0.78345100  0.92923436  0.04496893    -0.18000
C2571       C  0.80836422  0.95152005  0.02749564     0.10300
C2572       C  0.82509044  0.98468561  0.03518718    -0.06800
C2573       C  0.81687720  0.99431609  0.06063496    -0.18000
C2574       C  0.79231801  0.97221510  0.07807565     0.10400
S2575       S  0.81826043  0.93586019  0.99638904    -0.33000
S2576       S  0.78248528  0.98872682  0.10843852    -0.33000
H2577       H  0.74968206  0.97149377  0.10223745     0.28400
H2578       H  0.85100208  0.95914176  0.99657240     0.28400
H2579       H  0.77073546  0.90394819  0.03881795     0.19000
H2580       H  0.82331154  0.52377434  0.06923658     0.19000
C2581       C  0.92982991  0.58967816  0.02917644    -0.06900
C2582       C  0.94425729  0.58189518  0.05093111    -0.18000
C2583       C  0.97069656  0.60580660  0.06592210     0.10300
C2584       C  0.98399521  0.63841553  0.05858742    -0.06800
C2585       C  0.97151934  0.64612494  0.03540774    -0.18000
C2586       C  0.94416700  0.62254639  0.02127893     0.10400
S2587       S  0.98604671  0.59327902  0.09453729    -0.33000
S2588       S  0.92740367  0.63717648  0.99579497    -0.33000
H2589       H  0.89572837  0.61690585  0.00487874     0.28400
H2590       H  0.01742483  0.61974391  0.09305442     0.28400
H2591       H  0.93452288  0.55696772  0.05677198     0.19000
H2592       H  0.98135213  0.67120785  0.02999057     0.19000
C2593       C  0.68405302  0.71839090  0.27657399    -0.06900
C2594       C  0.67165669  0.69095129  0.25871110    -0.18000
C2595       C  0.66626613  0.69256830  0.22960865     0.10300
C2596       C  0.67494562  0.72263036  0.21758012    -0.06800
C2597       C  0.68546701  0.74962194  0.23564925    -0.18000
C2598       C  0.68847863  0.74729841  0.26511874     0.10400
S2599       S  0.65062045  0.65648401  0.20771135    -0.33000
S2600       S  0.69625335  0.78128508  0.28726874    -0.33000
H2601       H  0.67979016  0.76303935  0.31127262     0.28400
H2602       H  0.64240189  0.63463145  0.23014592     0.28400
H2603       H  0.66751699  0.66846717  0.26728029     0.19000
H2604       H  0.69115731  0.77253759  0.22678825     0.19000
C2605       C  0.81252815  0.81267323  0.39254595    -0.06900
C2606       C  0.78131331  0.80585697  0.39785118    -0.18000
C2607       C  0.75561569  0.78342960  0.38132798     0.10300
C2608       C  0.76065973  0.76656709  0.35896620    -0.06800
C2609       C  0.79192608  0.77401715  0.35279927    -0.18000
C2610       C  0.81789409  0.79680011  0.36940500     0.10400
S2611       S  0.71670450  0.77683919  0.39034442    -0.33000
S2612       S  0.85668861  0.80287022  0.36120454    -0.33000
H2613       H  0.86675543  0.80667126  0.38971584     0.28400
H2614       H  0.70460253  0.76950078  0.36243550     0.28400
H2615       H  0.77683842  0.81834047  0.41505581     0.19000
H2616       H  0.79592321  0.76094388  0.33584622     0.19000
C2617       C  0.61958644  0.61088093  0.40762189    -0.06900
C2618       C  0.62298695  0.60315030  0.37920968    -0.18000
C2619       C  0.64464608  0.62679917  0.36032778     0.10300
C2620       C  0.66243743  0.65940534  0.36956937    -0.06800
C2621       C  0.65985802  0.66680297  0.39818331    -0.18000
C2622       C  0.63988715  0.64312266  0.41739492     0.10400
S2623       S  0.65007415  0.61472203  0.32501421    -0.33000
S2624       S  0.64153823  0.65657584  0.45381219    -0.33000
H2625       H  0.64655595  0.63265552  0.46488564     0.28400
H2626       H  0.62891478  0.58139018  0.32800774     0.28400
H2627       H  0.60825963  0.57853896  0.37162169     0.19000
H2628       H  0.67348008  0.69155051  0.40581653     0.19000
C2629       C  0.60732049  0.72167164  0.51349863    -0.06900
C2630       C  0.58716489  0.71200395  0.48979704    -0.18000
C2631       C  0.56988461  0.67983512  0.48076488     0.10300
C2632       C  0.57234766  0.65631858  0.49627684    -0.06800
C2633       C  0.59237559  0.66613433  0.52039314    -0.18000
C2634       C  0.60999622  0.69864666  0.52906757     0.10400
S2635       S  0.54643583  0.67018724  0.44855663    -0.33000
S2636       S  0.63489832  0.71048728  0.56035242    -0.33000
H2637       H  0.62709312  0.67927268  0.56810273     0.28400
H2638       H  0.55222025  0.70125987  0.44305713     0.28400
H2639       H  0.58569263  0.73013101  0.47780183     0.19000
H2640       H  0.59418276  0.64829544  0.53251286     0.19000
C2641       C  0.70774462  0.82420437  0.50980224    -0.06900
C2642       C  0.71718787  0.84549248  0.48689068    -0.18000
C2643       C  0.74830069  0.86069992  0.47624900     0.10300
C2644       C  0.77130817  0.85574853  0.48947703    -0.06800
C2645       C  0.76182361  0.83478278  0.51281283    -0.18000
C2646       C  0.73044602  0.81902878  0.52304630     0.10400
S2647       S  0.75601653  0.88379799  0.44439982    -0.33000
S2648       S  0.72116468  0.79334584  0.55344854    -0.33000
H2649       H  0.69751598  0.79879659  0.56473788     0.28400
H2650       H  0.77160751  0.86947035  0.43083674     0.28400
H2651       H  0.69970118  0.84899743  0.47613496     0.19000
H2652       H  0.77905497  0.83084545  0.52348770     0.19000
C2653       C  0.57452689  0.85130874  0.49574383    -0.06900
C2654       C  0.60056705  0.86744674  0.51427178    -0.18000
C2655       C  0.61649067  0.85232111  0.52405951     0.10300
C2656       C  0.60645683  0.82056192  0.51470739    -0.06800
C2657       C  0.57994066  0.80436614  0.49658102    -0.18000
C2658       C  0.56430459  0.81955970  0.48669123     0.10400
S2659       S  0.64869858  0.87443890  0.54890522    -0.33000
S2660       S  0.53343378  0.79832692  0.46058678    -0.33000
H2661       H  0.54481219  0.82521137  0.44281414     0.28400
H2662       H  0.64356197  0.84717137  0.56382131     0.28400
H2663       H  0.60821770  0.89179645  0.52147555     0.19000
H2664       H  0.57243580  0.78031595  0.48860089     0.19000
C2665       C  0.00316796  0.65925202  0.36422310    -0.06900
C2666       C  0.53204588  0.65787145  0.36196050    -0.18000
C2667       C  0.53224248  0.63238927  0.37553373     0.10300
C2668       C  0.00425671  0.60813556  0.39202393    -0.06800
C2669       C  0.97832705  0.61294167  0.39548511    -0.18000
C2670       C  0.97731277  0.63783302  0.38162096     0.10400
S2671       S  0.56686633  0.62847198  0.37039856    -0.33000
S2672       S  0.94191722  0.64024799  0.38644700    -0.33000
H2673       H  0.94220751  0.65143312  0.35891681     0.28400
H2674       H  0.58059627  0.64989840  0.34757138     0.28400
H2675       H  0.55224473  0.67427338  0.34898889     0.19000
H2676       H  0.95841924  0.59698965  0.40896737     0.19000
C2677       C  0.99819641  0.76093922  0.36686632    -0.06900
C2678       C  0.97353042  0.75072690  0.38719058    -0.18000
C2679       C  0.96887385  0.77295836  0.40293720     0.10300
C2680       C  0.98874479  0.80625707  0.39791055    -0.06800
C2681       C  0.51518123  0.82046025  0.37761635    -0.18000
C2682       C  0.52155659  0.79889236  0.36305026     0.10400
S2683       S  0.93727541  0.75740181  0.42909665    -0.33000
S2684       S  0.55651865  0.81645020  0.34050868    -0.33000
H2685       H  0.56541454  0.79386885  0.34713494     0.28400
H2686       H  0.93196381  0.78335135  0.42821545     0.28400
H2687       H  0.95773553  0.72520662  0.39088230     0.19000
H2688       H  0.53062062  0.84607501  0.37404025     0.19000
C2689       C  0.01992841  0.72130854  0.27491250    -0.06900
C2690       C  0.99840594  0.72441074  0.25792994    -0.18000
C2691       C  0.00278696  0.72868441  0.22853449     0.10300
C2692       C  0.52855561  0.72891279  0.21595134    -0.06800
C2693       C  0.55176103  0.72797637  0.23258287    -0.18000
C2694       C  0.54925369  0.72647383  0.26244901     0.10400
S2695       S  0.97260642  0.73144023  0.20883750    -0.33000
S2696       S  0.58175628  0.72842857  0.28202497    -0.33000
H2697       H  0.57889588  0.74463557  0.30604537     0.28400
H2698       H  0.95645369  0.73513155  0.23225857     0.28400
H2699       H  0.97759144  0.72293306  0.26787609     0.19000
H2700       H  0.57235693  0.72924878  0.22232231     0.19000
C2701       C  0.81924163  0.92852006  0.39058672    -0.06900
C2702       C  0.79542703  0.89936088  0.37843521    -0.18000
C2703       C  0.76736180  0.89601984  0.36809435     0.10300
C2704       C  0.76372030  0.92312519  0.36729992    -0.06800
C2705       C  0.78775194  0.95269881  0.37864115    -0.18000
C2706       C  0.81545298  0.95567788  0.39039900     0.10400
S2707       S  0.73599619  0.85566017  0.35904079    -0.33000
S2708       S  0.84521314  0.99475523  0.40397853    -0.33000
H2709       H  0.87133044  0.99194332  0.39520202     0.28400
H2710       H  0.71058445  0.85989349  0.36714899     0.28400
H2711       H  0.79736311  0.87801234  0.37917509     0.19000
H2712       H  0.78502088  0.97356269  0.37810667     0.19000
C2713       C  0.60922807  0.92243702  0.40155175    -0.06900
C2714       C  0.60697562  0.89227908  0.39961470    -0.18000
C2715       C  0.63147397  0.88897062  0.38760324     0.10300
C2716       C  0.65856216  0.91619336  0.37629890    -0.06800
C2717       C  0.66129478  0.94654048  0.37878829    -0.18000
C2718       C  0.63693363  0.94997764  0.39129208     0.10400
S2719       S  0.62688655  0.84947577  0.38747920    -0.33000
S2720       S  0.64189275  0.98962208  0.39207974    -0.33000
H2721       H  0.60937083  0.97916279  0.38926266     0.28400
H2722       H  0.65958626  0.86023435  0.38866972     0.28400
H2723       H  0.58608893  0.87111410  0.40799996     0.19000
H2724       H  0.68203443  0.96749220  0.36998301     0.19000
C2725       C  0.67814283  0.87417459  0.22346152    -0.06900
C2726       C  0.69950397  0.86804019  0.23768126    -0.18000
C2727       C  0.70559064  0.87463712  0.26690994     0.10300
C2728       C  0.69148992  0.88966853  0.28266751    -0.06800
C2729       C  0.66961709  0.89507971  0.26831554    -0.18000
C2730       C  0.66164574  0.88624888  0.23968466     0.10400
S2731       S  0.73034056  0.86156861  0.28244693    -0.33000
S2732       S  0.63042516  0.89121683  0.22472166    -0.33000
H2733       H  0.61994011  0.89853413  0.25026638     0.28400
H2734       H  0.70920243  0.84774400  0.30547479     0.28400
H2735       H  0.71190702  0.85823730  0.22589376     0.19000
H2736       H  0.65903705  0.90716721  0.27928523     0.19000
C2737       C  0.85744209  0.88910258  0.60632235    -0.06900
C2738       C  0.88210870  0.91944114  0.59707697    -0.18000
C2739       C  0.89149223  0.92482909  0.56826335     0.10300
C2740       C  0.87659815  0.89915468  0.54829482    -0.06800
C2741       C  0.85256776  0.86881699  0.55762279    -0.18000
C2742       C  0.84213186  0.86377538  0.58592523     0.10400
S2743       S  0.92241554  0.96480855  0.55832305    -0.33000
S2744       S  0.80720113  0.82528045  0.59378047    -0.33000
H2745       H  0.79455538  0.83747364  0.61413482     0.28400
H2746       H  0.93137531  0.95572522  0.53286691     0.28400
H2747       H  0.89417402  0.93906802  0.61238785     0.19000
H2748       H  0.84003232  0.84937439  0.54219715     0.19000
C2749       C  0.68633123  0.55217888  0.94231020    -0.06900
C2750       C  0.71268234  0.58215572  0.93453827    -0.18000
C2751       C  0.72464657  0.58770044  0.90648682     0.10300
C2752       C  0.71056664  0.56249759  0.88601903    -0.06800
C2753       C  0.68513856  0.53235052  0.89416179    -0.18000
C2754       C  0.67215637  0.52729245  0.92159967     0.10400
S2755       S  0.75740489  0.62728519  0.89797596    -0.33000
S2756       S  0.63067747  0.99503736  0.93156110    -0.33000
H2757       H  0.62580882  0.97734298  0.90607333     0.28400
H2758       H  0.76772143  0.61773748  0.87362717     0.28400
H2759       H  0.72360543  0.60147800  0.95027974     0.19000
H2760       H  0.67345891  0.51350374  0.87812326     0.19000
C2761       C  0.84859313  0.71185420  0.88460398    -0.06900
C2762       C  0.84819375  0.73863447  0.89648506    -0.18000
C2763       C  0.85253072  0.74585581  0.92554692     0.10300
C2764       C  0.85600807  0.72516778  0.94395557    -0.06800
C2765       C  0.85600183  0.69807270  0.93244265    -0.18000
C2766       C  0.85235722  0.69119812  0.90302300     0.10400
S2767       S  0.85568658  0.78316177  0.93736203    -0.33000
S2768       S  0.85241341  0.65576037  0.89057034    -0.33000
H2769       H  0.82975117  0.64801351  0.86899651     0.28400
H2770       H  0.87890744  0.79052921  0.95830006     0.28400
H2771       H  0.84636547  0.75544028  0.88280006     0.19000
H2772       H  0.85869471  0.68208911  0.94651143     0.19000
C2773       C  0.83541677  0.77100200  0.72160278    -0.06900
C2774       C  0.80850077  0.77440815  0.72273980    -0.18000
C2775       C  0.80787508  0.79939701  0.70855082     0.10300
C2776       C  0.83516093  0.82249061  0.69351415    -0.06800
C2777       C  0.86183783  0.81893194  0.69199309    -0.18000
C2778       C  0.86242217  0.79369332  0.70566961     0.10400
S2779       S  0.77117149  0.79977419  0.70966476    -0.33000
S2780       S  0.89869655  0.79235319  0.70335423    -0.33000
H2781       H  0.91826187  0.82267198  0.69096583     0.28400
H2782       H  0.77453305  0.81274152  0.68236205     0.28400
H2783       H  0.78756735  0.75725812  0.73456686     0.19000
H2784       H  0.88268048  0.83657505  0.68040231     0.19000
C2785       C  0.85534701  0.56145849  0.88867415    -0.06900
C2786       C  0.87912786  0.55490540  0.89663229    -0.18000
C2787       C  0.88024625  0.54446286  0.92368392     0.10300
C2788       C  0.85857563  0.54262362  0.94463554    -0.06800
C2789       C  0.83407403  0.54825140  0.93690569    -0.18000
C2790       C  0.83189984  0.55717458  0.90896830     0.10400
S2791       S  0.90958556  0.53310651  0.92985627    -0.33000
S2792       S  0.79964926  0.56378017  0.90116902    -0.33000
H2793       H  0.81453425  0.58466993  0.87826152     0.28400
H2794       H  0.89211222  0.51057523  0.95117019     0.28400
H2795       H  0.89660819  0.55666440  0.88122859     0.19000
H2796       H  0.81727772  0.54683286  0.95295190     0.19000
C2797       C  0.83108878  0.92401130  0.69980395    -0.06900
C2798       C  0.85133605  0.93761502  0.72330800    -0.18000
C2799       C  0.85094264  0.96132221  0.74046383     0.10300
C2800       C  0.82899883  0.97151789  0.73491510    -0.06800
C2801       C  0.80875352  0.95806393  0.71119766    -0.18000
C2802       C  0.80934016  0.93426160  0.69381105     0.10400
S2803       S  0.88121734  0.97941286  0.76751523    -0.33000
S2804       S  0.78106761  0.91719143  0.66500635    -0.33000
H2805       H  0.77764692  0.88648009  0.66546926     0.28400
H2806       H  0.88571300  0.45225314  0.77113406     0.28400
H2807       H  0.86856617  0.93048976  0.72776570     0.19000
H2808       H  0.79195403  0.96565482  0.70649996     0.19000
C2809       C  0.93795970  0.88393787  0.84163319    -0.06900
C2810       C  0.91769343  0.87452935  0.81799915    -0.18000
C2811       C  0.90063365  0.84235431  0.80850194     0.10300
C2812       C  0.90381824  0.81876691  0.82324336    -0.06800
C2813       C  0.92356414  0.82834397  0.84747262    -0.18000
C2814       C  0.94050128  0.86057312  0.85684893     0.10400
S2815       S  0.87631383  0.83271420  0.77688247    -0.33000
S2816       S  0.96394698  0.87141645  0.88902465    -0.33000
H2817       H  0.95711415  0.84022347  0.89564748     0.28400
H2818       H  0.88039685  0.86338812  0.77286873     0.28400
H2819       H  0.91600410  0.89278794  0.80644635     0.19000
H2820       H  0.92556952  0.81044637  0.85929267     0.19000
C2821       C  0.53970461  0.98391326  0.84623148    -0.06900
C2822       C  0.55243705  0.51003118  0.82718798    -0.18000
C2823       C  0.58399257  0.52625315  0.81756697     0.10300
C2824       C  0.60586598  0.51846902  0.82916703    -0.06800
C2825       C  0.59268588  0.99157510  0.84803851    -0.18000
C2826       C  0.56103376  0.97556707  0.85751787     0.10400
S2827       S  0.59479373  0.55565061  0.78972377    -0.33000
S2828       S  0.54970870  0.94548686  0.88450644    -0.33000
H2829       H  0.02970344  0.93310171  0.88621224     0.28400
H2830       H  0.56381029  0.54800164  0.78246012     0.28400
H2831       H  0.53564926  0.51554372  0.81787878     0.19000
H2832       H  0.60875203  0.98481067  0.85689198     0.19000
C2833       C  0.94478587  0.98794141  0.84953579    -0.06900
C2834       C  0.95958029  0.51758720  0.84704383    -0.18000
C2835       C  0.94501303  0.53481511  0.83959638     0.10300
C2836       C  0.91140815  0.51873008  0.83784282    -0.06800
C2837       C  0.89958362  0.99566294  0.85054059    -0.18000
C2838       C  0.91425686  0.97904574  0.85988990     0.10400
S2839       S  0.97080565  0.57733388  0.83336571    -0.33000
S2840       S  0.89413661  0.94701226  0.88533961    -0.33000
H2841       H  0.86830838  0.95150084  0.89089751     0.28400
H2842       H  0.95077121  0.58612743  0.84754830     0.28400
H2843       H  0.98537277  0.52990042  0.84643239     0.19000
H2844       H  0.87587399  0.98834224  0.85821022     0.19000
C2845       C  0.99690982  0.82444031  0.70081648    -0.06900
C2846       C  0.99345421  0.83045005  0.72955812    -0.18000
C2847       C  0.97141225  0.80618338  0.74742930     0.10300
C2848       C  0.95129090  0.77444057  0.73617215    -0.06800
C2849       C  0.95533566  0.76828587  0.70743340    -0.18000
C2850       C  0.97808450  0.79264966  0.68985350     0.10400
S2851       S  0.96909933  0.81748786  0.78408195    -0.33000
S2852       S  0.98219181  0.78132932  0.65390235    -0.33000
H2853       H  0.51788716  0.79876726  0.65533861     0.28400
H2854       H  0.99139267  0.85070802  0.78235909     0.28400
H2855       H  0.00768551  0.85479801  0.73790958     0.19000
H2856       H  0.94049032  0.74430276  0.69843935     0.19000
C2857       C  0.59832365  0.92366231  0.69531157    -0.06900
C2858       C  0.59021858  0.93823878  0.71720066    -0.18000
C2859       C  0.61331321  0.96258027  0.73445811     0.10300
C2860       C  0.64585030  0.97242435  0.73061954    -0.06800
C2861       C  0.65427088  0.95879227  0.70789070    -0.18000
C2862       C  0.63086807  0.93445464  0.69018371     0.10400
S2863       S  0.59920405  0.98063763  0.76018027    -0.33000
S2864       S  0.64432308  0.91802473  0.66221238    -0.33000
H2865       H  0.61471633  0.89134227  0.65449930     0.28400
H2866       H  0.62923225  0.51492610  0.75896201     0.28400
H2867       H  0.56537467  0.93069725  0.72071278     0.19000
H2868       H  0.67912903  0.96652804  0.70436696     0.19000
C2869       C  0.52359258  0.88799748  0.61210177    -0.06900
C2870       C  0.50539123  0.86142559  0.59380800    -0.18000
C2871       C  0.49958127  0.86546486  0.56546082     0.10300
C2872       C  0.51401615  0.89683447  0.55427927    -0.06800
C2873       C  0.53087866  0.92340988  0.57266693    -0.18000
C2874       C  0.53412255  0.91934424  0.60169828     0.10400
S2875       S  0.47652413  0.83010960  0.54315493    -0.33000
S2876       S  0.55049169  0.95498118  0.62416038    -0.33000
H2877       H  0.53375456  0.93862634  0.64882955     0.28400
H2878       H  0.46395612  0.80761578  0.56530804     0.28400
H2879       H  0.49700973  0.83727521  0.60116661     0.19000
H2880       H  0.54178920  0.94752828  0.56428164     0.19000
C2881       C  0.64892588  0.58565331  0.72859915    -0.06900
C2882       C  0.62617878  0.55706856  0.71460870    -0.18000
C2883       C  0.59838966  0.55376503  0.70310851     0.10300
C2884       C  0.59341973  0.58006654  0.70434336    -0.06800
C2885       C  0.61617125  0.60882023  0.71788747    -0.18000
C2886       C  0.64391644  0.61204744  0.72969524     0.10400
S2887       S  0.56969338  0.51493027  0.68808114    -0.33000
S2888       S  0.67266908  0.65102098  0.74422924    -0.33000
H2889       H  0.69928031  0.65040702  0.73321983     0.28400
H2890       H  0.54266102  0.51718079  0.69423939     0.28400
H2891       H  0.62941367  0.53653074  0.71340083     0.19000
H2892       H  0.61286827  0.62935713  0.71829938     0.19000
C2893       C  0.98937888  0.57700351  0.70296036    -0.06900
C2894       C  0.95739565  0.55489805  0.69646706    -0.18000
C2895       C  0.93244477  0.55700106  0.70904819     0.10300
C2896       C  0.93930271  0.58112401  0.73030495    -0.06800
C2897       C  0.97144742  0.60317625  0.73699509    -0.18000
C2898       C  0.49880034  0.61044911  0.72475325     0.10400
S2899       S  0.89237798  0.52793772  0.69731390    -0.33000
S2900       S  0.53789686  0.64154063  0.73631117    -0.33000
H2901       H  0.55246329  0.64573371  0.70942472     0.28400
H2902       H  0.90056428  0.51642201  0.67286128     0.28400
H2903       H  0.95186354  0.53548802  0.68140192     0.19000
H2904       H  0.97730918  0.62197623  0.75285295     0.19000
C2905       C  0.53632188  0.56818990  0.61325669    -0.06900
C2906       C  0.52870873  0.53755993  0.60288544    -0.18000
C2907       C  0.52089099  0.52882942  0.57410519     0.10300
C2908       C  0.52051003  0.55116024  0.55535277    -0.06800
C2909       C  0.52838464  0.58179425  0.56592178    -0.18000
C2910       C  0.53692112  0.59074158  0.59427500     0.10400
S2911       S  0.01097570  0.98640765  0.55853485    -0.33000
S2912       S  0.54962651  0.63177568  0.60458453    -0.33000
H2913       H  0.57088116  0.63443404  0.62589488     0.28400
H2914       H  0.99149763  0.98380608  0.53562737     0.28400
H2915       H  0.52797114  0.52005020  0.61747341     0.19000
H2916       H  0.52947082  0.59969698  0.55160657     0.19000
loop_ 
_geom_bond_atom_site_label_1 
_geom_bond_atom_site_label_2 
_geom_bond_distance 
_geom_bond_site_symmetry_2 
_ccdc_geom_bond_type 
C1            C2   1.400       .  A
C1            C6   1.401       .  A
C1          C718   1.481       .  S
C2            C3   1.404       .  A
C2            H7   1.084   1_455  S
C3            C4   1.408       .  A
C3         C2164   1.491   1_455  S
C4            C5   1.408       .  A
C4            H8   1.083       .  S
C5            C6   1.408       .  A
C5          C697   1.485       .  S
C6            H9   1.084       .  S
C10          C11   1.410       .  A
C10          C15   1.411       .  A
C10         C682   1.495       .  S
C11          C12   1.403       .  A
C11        H1474   1.083   1_455  S
C12          C13   1.402       .  A
C12        C2116   1.489   1_455  S
C13          C14   1.400       .  A
C13          H17   1.084       .  S
C14          C15   1.403       .  A
C14         C670   1.479       .  S
C15          H18   1.082       .  S
H16        C1469   1.083       .  S
C19         C646   1.476       .  S
C19          N20   1.353       .  A
C19          N24   1.354       .  A
N20        C1479   1.355       .  A
C21         C634   1.480       .  S
C21        N1478   1.359   1_455  A
C21        N1480   1.359   1_455  A
N22          C23   1.361       .  A
N22        C1479   1.359       .  A
C23         C622   1.477       .  S
C23          N24   1.359       .  A
O25         Cr43   1.944       .  S
O25          C33   1.255       .  A
O26         Cr43   2.021       .  S
O26          C27   1.272       .  A
C27          C55   1.470       .  S
C27          O28   1.258       .  A
O28         Cr44   1.967       .  S
O29         Cr44   1.986       .  S
O29          C30   1.263       .  A
C30         C598   1.483       .  S
C30          O31   1.261       .  A
O31         Cr45   1.985       .  S
O32         Cr45   2.037       .  S
O32          C33   1.272       .  A
C33          C71   1.472       .  S
O34         Cr43   2.018       .  S
O34          C42   1.265   1_545  A
O35         Cr43   1.961       .  S
O35          C36   1.251       .  A
C36         C709   1.496       .  S
C36          O37   1.265       .  A
O37         Cr44   2.018       .  S
O38         Cr44   1.960       .  S
O38          C39   1.259       .  A
C39         C649   1.485       .  S
C39          O40   1.270       .  A
O40         Cr45   2.016       .  S
O41        Cr774   1.970       .  S
O41         C771   1.255       .  A
C42        C1342   1.488       .  S
C42         O770   1.255       .  A
Cr43         O46   1.772       .  S
Cr44         O46   1.776       .  S
Cr45        O770   1.968   1_545  S
Cr45         O46   1.781       .  S
O47         Cr65   1.965       .  S
O47          C55   1.258       .  A
O48         Cr65   2.038       .  S
O48          C49   1.276       .  A
C49          C77   1.472       .  S
C49          O50   1.259       .  A
O50         Cr66   1.955       .  S
O51         Cr66   1.987       .  S
O51          C52   1.262       .  A
C52         C574   1.491       .  S
C52          O53   1.259       .  A
O53         Cr67   1.986       .  S
O54         Cr67   2.015       .  S
O54          C55   1.268       .  A
O56         Cr65   2.011       .  S
O56          C64   1.267       .  A
O57         Cr65   1.973       .  S
O57          C58   1.251       .  A
C58         C586   1.494       .  S
C58          O59   1.261       .  A
O59         Cr66   2.009       .  S
O60         Cr66   1.963       .  S
O60          C61   1.260       .  A
C61         C625   1.491       .  S
C61          O62   1.272       .  A
O62         Cr67   2.022       .  S
O63         Cr67   1.957       .  S
O63          C64   1.254       .  A
C64         C661   1.491       .  S
Cr65         O68   1.779       .  S
Cr66         O68   1.773       .  S
Cr67         O68   1.776       .  S
O69         Cr87   2.019       .  S
O69          C77   1.267       .  A
O70         Cr87   1.958       .  S
O70          C71   1.261       .  A
C71          O72   1.268       .  A
O72         Cr88   2.026       .  S
O73         Cr88   1.976       .  S
O73          C74   1.260       .  A
C74         C565   1.474       .  S
C74          O75   1.266       .  A
O75         Cr89   2.012       .  S
O76         Cr89   1.972       .  S
O76          C77   1.262       .  A
O78         Cr87   1.968       .  S
O78          C86   1.258       .  A
O79         Cr87   2.010       .  S
O79          C80   1.263       .  A
C80        C1402   1.482   1_545  S
C80         O810   1.256   1_545  A
O81        Cr817   1.968       .  S
O81         C809   1.256       .  A
O82         Cr88   2.007       .  S
O82          C83   1.266       .  A
C83         C637   1.484       .  S
C83          O84   1.259       .  A
O84         Cr89   1.968       .  S
O85         Cr89   2.019       .  S
O85          C86   1.267       .  A
C86         C694   1.491       .  S
Cr87         O90   1.775       .  S
Cr88        O810   1.969   1_545  S
Cr88         O90   1.778       .  S
Cr89         O90   1.772       .  S
C91          C92   1.406       .  A
C91          C96   1.409       .  A
C91         C550   1.491       .  S
C92          C93   1.403       .  A
C92          H97   1.084       .  S
C93          C94   1.403       .  A
C93         C589   1.489       .  S
C94          C95   1.407       .  A
C94          H98   1.084       .  S
C95          C96   1.408       .  A
C95         C610   1.488       .  S
C96          H99   1.083       .  S
C100        C101   1.412       .  A
C100        C105   1.410       .  A
C100        C541   1.509       .  S
C101        C102   1.402       .  A
C101        H106   1.082       .  S
C102        C103   1.399       .  A
C102        C529   1.475       .  S
C103        C104   1.400       .  A
C103        H107   1.084       .  S
C104        C105   1.404       .  A
C104        C517   1.477       .  S
C105        H108   1.079       .  S
C109        C110   1.404       .  A
C109        C114   1.401       .  A
C109        C502   1.486       .  S
C110        C111   1.406       .  A
C110        H115   1.084       .  S
C111        C112   1.408       .  A
C111        C490   1.491       .  S
C112        C113   1.410       .  A
C112        H116   1.083       .  S
C113        C114   1.408       .  A
C113        C478   1.494       .  S
C114        H117   1.084       .  S
C118        C469   1.472       .  S
C118        N119   1.354       .  A
C118        N123   1.352       .  A
N119        C120   1.358       .  A
C120        C454   1.468       .  S
C120        N121   1.357       .  A
N121        C122   1.355       .  A
C122        C442   1.458       .  S
C122        N123   1.353       .  A
O124      Cr1600   1.959       .  S
O124        C132   1.259       .  A
O125       Cr142   2.008       .  S
O125        C126   1.268       .  A
C126        C154   1.464       .  S
C126        O127   1.262       .  A
O127       Cr143   1.976       .  S
O128       Cr143   2.000       .  S
O128        C129   1.261       .  A
C129        C685   1.477       .  S
C129       O1588   1.259   1_455  A
O130       Cr144   1.988       .  S
O130       C1587   1.261       .  A
O131       Cr144   2.021       .  S
O131        C132   1.269       .  A
C132        C170   1.471       .  S
O133      Cr1600   1.999       .  S
O133        C141   1.261       .  A
O134       Cr142   1.966       .  S
O134        C135   1.254       .  A
C135        C526   1.471       .  S
C135        O136   1.263       .  A
O136       Cr143   2.012       .  S
O137       Cr143   1.961       .  S
O137        C138   1.260       .  A
C138        C466   1.462       .  S
C138        O139   1.269       .  A
O139      Cr1602   2.010   1_455  S
O140       Cr144   1.971       .  S
O140        C141   1.254       .  A
C141        C493   1.477       .  S
Cr142      O1582   1.950   1_455  S
Cr142      O1591   1.998   1_455  S
Cr142       O145   1.773       .  S
Cr143       O145   1.785       .  S
Cr144      O1597   2.005       .  S
Cr144      O1603   1.784       .  S
O145      Cr1602   1.778   1_455  S
O146       Cr893   1.965       .  S
O146        C154   1.259       .  A
O147      Cr2351   2.028       .  S
O147        C148   1.272       .  A
C148        C176   1.472       .  S
C148        O878   1.262       .  A
O149       Cr165   1.958       .  S
O149        C877   1.259   1_545  A
O150       Cr165   1.999       .  S
O150       C1609   1.263       .  A
C151        C721   1.481       .  S
C151        O152   1.258       .  A
C151       O1608   1.262       .  A
O152       Cr166   1.983       .  S
O153       Cr166   2.009       .  S
O153        C883   1.267   1_545  A
C154        O882   1.266       .  A
O155       Cr164   2.018       .  S
O155        C163   1.267       .  A
O156      Cr1622   1.964       .  S
O156        C157   1.251       .  A
C157        C481   1.497       .  S
C157        O158   1.265       .  A
O158       Cr165   2.018       .  S
O159      Cr1623   1.955   1_455  S
O159        C160   1.260       .  A
C160        C445   1.473       .  S
C160        O161   1.269       .  A
O161       Cr166   2.010       .  S
O162       Cr166   1.961       .  S
O162        C163   1.253       .  A
C163        C430   1.495       .  S
Cr164       O875   1.968   1_545  S
Cr164      O2334   2.036   1_455  S
Cr164      O1614   1.971       .  S
Cr164       O167   1.778       .  S
Cr165      O1617   1.953       .  S
Cr165      O1625   1.775       .  S
Cr166       O167   1.776       .  S
O167      Cr1623   1.777   1_455  S
O168       Cr186   2.025       .  S
O168        C176   1.271       .  A
O169       Cr186   1.960       .  S
O169        C170   1.259       .  A
C170        O171   1.268       .  A
O171       Cr187   2.020       .  S
O172       Cr187   1.977       .  S
O172        C173   1.260       .  A
C173        C553   1.473       .  S
C173        O174   1.264       .  A
O174       Cr188   2.006       .  S
O175       Cr188   1.968       .  S
O175        C176   1.261       .  A
O177       Cr186   1.966       .  S
O177        C185   1.255       .  A
O178       Cr186   2.022       .  S
O178        C179   1.266       .  A
C179        C418   1.488       .  S
C179        O180   1.255       .  A
O180       Cr187   1.963       .  S
O181       Cr187   2.004       .  S
O181        C182   1.267       .  A
C182        C457   1.481       .  S
C182        O183   1.260       .  A
O183       Cr188   1.969       .  S
O184       Cr188   2.015       .  S
O184        C185   1.264       .  A
C185        C514   1.479       .  S
Cr186       O189   1.776       .  S
Cr187       O189   1.774       .  S
Cr188       O189   1.774       .  S
C190        C191   1.412       .  A
C190        C195   1.407       .  A
C190        C406   1.493       .  S
C191        C192   1.403       .  A
C191        H196   1.083       .  S
C192        C193   1.403       .  A
C192        C421   1.486       .  S
C193        C194   1.406       .  A
C193        H197   1.084       .  S
C194        C195   1.405       .  A
C194        C433   1.491       .  S
C195        H198   1.083       .  S
C199        C200   1.402       .  A
C199        C204   1.406       .  A
C199        C601   1.481       .  S
C200        C201   1.404   1_556  A
C200        H934   1.084   1_545  S
C201        C202   1.404       .  A
C201       C1114   1.477   1_545  S
C202        C203   1.405       .  A
C202        H206   1.084       .  S
C203        C204   1.403   1_554  A
C203        C394   1.496       .  S
C204        H207   1.082       .  S
H205        C929   1.084       .  S
C208        C209   1.404       .  A
C208        C213   1.403       .  A
C208        C577   1.488       .  S
C209        C210   1.404   1_556  A
C209        H214   1.084       .  S
C210        C211   1.402       .  A
C210        C370   1.479       .  S
C211        C212   1.405       .  A
C211        H215   1.083       .  S
C212        C213   1.402   1_554  A
C212        C358   1.483       .  S
C213        H216   1.083       .  S
C217        C325   1.484       .  S
C217        N218   1.358       .  A
C217        N222   1.353       .  A
N218        C219   1.355       .  A
C219        C337   1.464       .  S
C219        N220   1.355       .  A
N220        C221   1.357       .  A
C221        C346   1.471       .  S
C221        N222   1.357       .  A
O223       Cr241   2.031       .  S
O223        C231   1.274       .  A
O224       Cr241   1.955       .  S
O224        C225   1.259       .  A
C225        C275   1.468       .  S
C225        O226   1.269       .  A
O226       Cr242   2.019       .  S
O227       Cr242   1.998       .  S
O227        C228   1.262       .  A
C228        C505   1.490       .  S
C228        O229   1.255       .  A
O229       Cr243   1.979       .  S
O230       Cr243   1.966       .  S
O230        C231   1.261       .  A
C231        C247   1.472       .  S
O232       Cr241   1.983       .  S
O232        C240   1.255       .  A
O233       Cr241   2.002       .  S
O233        C234   1.263       .  A
C234       C1855   1.473   1_455  S
C234        O235   1.255   1_455  A
O235       Cr242   1.967   1_655  S
O236      Cr1700   2.010       .  S
O236        C237   1.271       .  A
C237        C349   1.482       .  S
C237        O238   1.261       .  A
O238      Cr1701   1.959       .  S
O239       Cr243   2.006       .  S
O239        C240   1.258       .  A
C240       C1831   1.486   1_455  S
Cr241       O244   1.775       .  S
Cr242      O1694   2.009   1_455  S
Cr242       O244   1.785       .  S
Cr243      O1696   1.964   1_455  S
Cr243       O244   1.774       .  S
O245       Cr263   1.979       .  S
O245        C253   1.263       .  A
O246       Cr263   2.018       .  S
O246        C247   1.269       .  A
C247        O248   1.264       .  A
O248       Cr264   1.976       .  S
O249       Cr264   1.978       .  S
O249        C250   1.256       .  A
C250        C538   1.489       .  S
C250        O251   1.262       .  A
O251       Cr265   1.990       .  S
O252       Cr265   2.009       .  S
O252        C253   1.266       .  A
C253        C269   1.472       .  S
O254       Cr263   1.999       .  S
O254        C262   1.262       .  A
O255       Cr263   1.993       .  S
O255        C256   1.260       .  A
C256        C310   1.484       .  S
C256        O257   1.259       .  A
O257       Cr264   1.999       .  S
O258       Cr264   1.970       .  S
O258        C259   1.262       .  A
C259        C334   1.475       .  S
C259        O260   1.265       .  A
O260       Cr265   2.009       .  S
O261       Cr265   1.980       .  S
O261        C262   1.259       .  A
C262        C382   1.486       .  S
Cr263       O266   1.781       .  S
Cr264       O266   1.773       .  S
Cr265       O266   1.782       .  S
O267       Cr285   1.954       .  S
O267        C275   1.258       .  A
O268       Cr285   2.006       .  S
O268        C269   1.266       .  A
C269        O270   1.264       .  A
O270       Cr286   1.988       .  S
O271       Cr286   1.997       .  S
O271        C272   1.260       .  A
C272        C409   1.478       .  S
C272        O273   1.259       .  A
O273       Cr287   1.983       .  S
O274       Cr287   2.016       .  S
O274        C275   1.267       .  A
O276       Cr285   2.013       .  S
O276        C284   1.262       .  A
O277       Cr285   1.961       .  S
O277        C278   1.253       .  A
C278        C361   1.466       .  S
C278        O279   1.261       .  A
O279       Cr286   2.003       .  S
O280       Cr286   1.979       .  S
O280        C281   1.263       .  A
C281        C322   1.474       .  S
C281        O282   1.265       .  A
O282       Cr287   1.993       .  S
O283       Cr287   1.978       .  S
O283        C284   1.255       .  A
C284        C301   1.487       .  S
Cr285       O288   1.784       .  S
Cr286       O288   1.790       .  S
Cr287       O288   1.784       .  S
C289        C290   1.404       .  A
C289        C294   1.400       .  A
C289        C562   1.487       .  S
C290        C291   1.411   1_556  A
C290       H1024   1.081       .  S
C291        C292   1.419       .  A
C291       C1042   1.513   1_545  S
C292        C293   1.412       .  A
C292        H296   1.080       .  S
C293        C294   1.406   1_554  A
C293        C298   1.500       .  S
C294        H297   1.084       .  S
H295       C1019   1.082       .  S
C298        C299   1.406       .  A
C298        C303   1.419       .  A
C299        C300   1.398       .  A
C299        H308   1.084       .  S
C300        C301   1.412       .  A
C300        S304   1.795       .  S
C301        C302   1.405       .  A
C302        C303   1.409       .  A
C302        H309   1.084       .  S
C303        S305   1.802       .  S
S304        H307   1.406       .  S
S305        H306   1.407       .  S
C310        C311   1.398       .  A
C310        C315   1.414       .  A
C311        C312   1.402       .  A
C311        H320   1.084       .  S
C312        C313   1.426       .  A
C312        S316   1.797   1_554  S
C313        C314   1.409       .  A
C313       C1020   1.511       .  S
C314        C315   1.399       .  A
C314       H1050   1.081       .  S
C315        S317   1.796       .  S
S316        H319   1.407       .  S
S317        H318   1.406       .  S
H321       C1043   1.081   1_545  S
C322        C323   1.403       .  A
C322        C327   1.411       .  A
C323        C324   1.402       .  A
C323        H332   1.084       .  S
C324        C325   1.419       .  A
C324        S328   1.803       .  S
C325        C326   1.404       .  A
C326        C327   1.389       .  A
C326        H333   1.083       .  S
C327        S329   1.801       .  S
S328        H331   1.407       .  S
S329        H330   1.407       .  S
C334        C339   1.417       .  A
C334       C1064   1.399       .  A
C335        C336   1.391       .  A
C335       C1063   1.402   1_545  A
C335        H344   1.081   1_545  S
C336        C337   1.411       .  A
C336        S340   1.807       .  S
C337        C338   1.400       .  A
C338       C1068   1.401   1_545  A
C338        H345   1.084       .  S
C339       C1067   1.403       .  A
C339        S341   1.803       .  S
S340        H343   1.406       .  S
S341        H342   1.406       .  S
C346        C347   1.402       .  A
C346        C351   1.410       .  A
C347        C348   1.390       .  A
C347        H356   1.084       .  S
C348        C349   1.417       .  A
C348        S352   1.801       .  S
C349        C350   1.409       .  A
C350        C351   1.398       .  A
C350        H357   1.083       .  S
C351        S353   1.803       .  S
S352        H355   1.405       .  S
S353        H354   1.407       .  S
C358        C359   1.409       .  A
C358        C363   1.413       .  A
C359        C360   1.400       .  A
C359        H368   1.083       .  S
C360        C361   1.409       .  A
C360        S364   1.804       .  S
C361        C362   1.402       .  A
C362        C363   1.396       .  A
C362        H369   1.082       .  S
C363        S365   1.805       .  S
S364        H367   1.406       .  S
S365        H366   1.407       .  S
C370        C371   1.403       .  A
C370        C375   1.409       .  A
C371        C372   1.407       .  A
C371        H380   1.083       .  S
C372        C373   1.416       .  A
C372        S376   1.807       .  S
C373        C374   1.406       .  A
C373       C1698   1.486       .  S
C374        C375   1.397       .  A
C374        H381   1.083       .  S
C375        S377   1.804       .  S
S376        H379   1.407       .  S
S377        H378   1.406       .  S
C382        C383   1.406       .  A
C382        C387   1.417       .  A
C383        C384   1.403       .  A
C383        H392   1.084       .  S
C384        C385   1.415       .  A
C384        S388   1.804       .  S
C385        C386   1.399       .  A
C385        C930   1.483       .  S
C386        C387   1.395       .  A
C386       H1122   1.084       .  S
C387        S389   1.795       .  S
S388        H391   1.406       .  S
S389        H390   1.407       .  S
H393       C1115   1.085   1_545  S
C394        C395   1.409       .  A
C394        C399   1.420       .  A
C395        C396   1.402       .  A
C395        H404   1.083       .  S
C396        C397   1.410       .  A
C396        S400   1.802       .  S
C397        C398   1.400       .  A
C397       C1692   1.476       .  S
C398        C399   1.399       .  A
C398        H405   1.084       .  S
C399        S401   1.802   1_554  S
S400        H403   1.407       .  S
S401        H402   1.407   1_556  S
C406        C407   1.404       .  A
C406        C411   1.414       .  A
C407        C408   1.403       .  A
C407        H416   1.082       .  S
C408        C409   1.414       .  A
C408        S412   1.807       .  S
C409        C410   1.402       .  A
C410        C411   1.403       .  A
C410        H417   1.084       .  S
C411        S413   1.797       .  S
S412        H415   1.406       .  S
S413        H414   1.407       .  S
C418        C419   1.406       .  A
C418        C423   1.416       .  A
C419        C420   1.395       .  A
C419        H428   1.085       .  S
C420        C421   1.412       .  A
C420        S424   1.806       .  S
C421        C422   1.407       .  A
C422        C423   1.411       .  A
C422        H429   1.083       .  S
C423        S425   1.801       .  S
S424        H427   1.406       .  S
S425        H426   1.407       .  S
C430        C431   1.408       .  A
C430        C435   1.423       .  A
C431        C432   1.410       .  A
C431        H440   1.082       .  S
C432        C433   1.415       .  A
C432        S436   1.806       .  S
C433        C434   1.400       .  A
C434        C435   1.395       .  A
C434        H441   1.084       .  S
C435        S437   1.801       .  S
S436        H439   1.407       .  S
S437        H438   1.408       .  S
C442        C443   1.398       .  A
C442        C447   1.402       .  A
C443        C444   1.392       .  A
C443        H452   1.083       .  S
C444        C445   1.415       .  A
C444        S448   1.808       .  S
C445        C446   1.409       .  A
C446        C447   1.400       .  A
C446        H453   1.083       .  S
C447        S449   1.805       .  S
S448        H451   1.406       .  S
S449        H450   1.407       .  S
C454        C455   1.401       .  A
C454        C459   1.409       .  A
C455        C456   1.392       .  A
C455        H464   1.084       .  S
C456        C457   1.416       .  A
C456        S460   1.799       .  S
C457        C458   1.410       .  A
C458        C459   1.398       .  A
C458        H465   1.084       .  S
C459        S461   1.804       .  S
S460        H463   1.407       .  S
S461        H462   1.406       .  S
C466        C467   1.402       .  A
C466        C471   1.407       .  A
C467        C468   1.398       .  A
C467        H476   1.084       .  S
C468        C469   1.413       .  A
C468        S472   1.803       .  S
C469        C470   1.405       .  A
C470        C471   1.391       .  A
C470        H477   1.084       .  S
C471        S473   1.799       .  S
S472        H475   1.407       .  S
S473        H474   1.407       .  S
C478        C483   1.416       .  A
C478       C1937   1.402       .  A
C479        C480   1.402       .  A
C479       C1936   1.401       .  A
C479        H488   1.083       .  S
C480       C1939   1.424       .  A
C480        S484   1.812       .  S
C481        C482   1.409       .  A
C481       C1938   1.424       .  A
C482        C483   1.405       .  A
C482        H489   1.083       .  S
C483        S485   1.804       .  S
S484        H487   1.406       .  S
S485        H486   1.406       .  S
C490        C491   1.408       .  A
C490       C1953   1.416       .  A
C491        C492   1.405       .  A
C491        H500   1.084       .  S
C492        C493   1.411       .  A
C492        S496   1.803       .  S
C493       C1952   1.403       .  A
C494        C495   1.398       .  A
C494       C1951   1.401   1_455  A
C494        H501   1.084       .  S
C495       C1948   1.419       .  A
C495        S497   1.804       .  S
S496        H499   1.406       .  S
S497        H498   1.407       .  S
C502        C503   1.396       .  A
C502       C1965   1.416       .  A
C503        C504   1.398       .  A
C503        H512   1.083       .  S
C504       C1963   1.426       .  A
C504        S508   1.814       .  S
C505        C506   1.406       .  A
C505       C1962   1.425       .  A
C506        C507   1.406       .  A
C506        H513   1.084       .  S
C507       C1960   1.417       .  A
C507        S509   1.804       .  S
S508        H511   1.406       .  S
S509        H510   1.406       .  S
C514        C515   1.403       .  A
C514        C519   1.415       .  A
C515        C516   1.393       .  A
C515        H524   1.085       .  S
C516        C517   1.413       .  A
C516        S520   1.805       .  S
C517        C518   1.404       .  A
C518        C519   1.406       .  A
C518        H525   1.084       .  S
C519        S521   1.801       .  S
S520        H523   1.404       .  S
S521        H522   1.407       .  S
C526        C527   1.404       .  A
C526        C531   1.411       .  A
C527        C528   1.396       .  A
C527        H536   1.084       .  S
C528        C529   1.409       .  A
C528        S532   1.803       .  S
C529        C530   1.405       .  A
C530        C531   1.403       .  A
C530        H537   1.084       .  S
C531        S533   1.804       .  S
S532        H535   1.405       .  S
S533        H534   1.406       .  S
C538        C539   1.402       .  A
C538        C543   1.419       .  A
C539        C540   1.401       .  A
C539        H548   1.084       .  S
C540        C541   1.424       .  A
C540        S544   1.795       .  S
C541        C542   1.408       .  A
C542        C543   1.399       .  A
C542        H549   1.079       .  S
C543        S545   1.814       .  S
S544        H547   1.404       .  S
S545        H546   1.406       .  S
C550        C551   1.409       .  A
C550        C555   1.416       .  A
C551        C552   1.406       .  A
C551        H560   1.083       .  S
C552        C553   1.411       .  A
C552        S556   1.803       .  S
C553        C554   1.401       .  A
C554        C555   1.397       .  A
C554        H561   1.085       .  S
C555        S557   1.806       .  S
S556        H559   1.406       .  S
S557        H558   1.407       .  S
C562        C563   1.409       .  A
C562        C567   1.410       .  A
C563        C564   1.407       .  A
C563        H572   1.084       .  S
C564        C565   1.410       .  A
C564        S568   1.803       .  S
C565        C566   1.402       .  A
C566        C567   1.398       .  A
C566        H573   1.081       .  S
C567       S1298   1.807   1_545  S
S568        H571   1.406       .  S
S569       C1296   1.805       .  S
S569        H570   1.406       .  S
C574        C575   1.408       .  A
C574        C579   1.416       .  A
C575        C576   1.391       .  A
C575        H584   1.083       .  S
C576        C577   1.414       .  A
C576        S580   1.807       .  S
C577        C578   1.409       .  A
C578        C579   1.405       .  A
C578        H585   1.084       .  S
C579        S581   1.802       .  S
S580        H583   1.407       .  S
S581        H582   1.407       .  S
C586        C587   1.407       .  A
C586        C591   1.422       .  A
C587        C588   1.403       .  A
C587        H596   1.084       .  S
C588        C589   1.414       .  A
C588        S592   1.803       .  S
C589        C590   1.402       .  A
C590        C591   1.403       .  A
C590        H597   1.083       .  S
C591        S593   1.810       .  S
S592        H595   1.407       .  S
S593        H594   1.407       .  S
C598        C599   1.408       .  A
C598        C603   1.413       .  A
C599        C600   1.387       .  A
C599        H608   1.083       .  S
C600        C601   1.406       .  A
C600        S604   1.806       .  S
C601        C602   1.411       .  A
C602        C603   1.411       .  A
C602        H609   1.084       .  S
C603        S605   1.803       .  S
S604        H607   1.407       .  S
S605        H606   1.405       .  S
C610        C611   1.399       .  A
C610        C615   1.417       .  A
C611        C612   1.394       .  A
C611        H620   1.084       .  S
C612        C613   1.418       .  A
C612        S616   1.801       .  S
C613        C614   1.407       .  A
C613        C771   1.489       .  S
C614        C615   1.410       .  A
C614        H621   1.083       .  S
C615        S617   1.803       .  S
S616       H1348   1.407       .  S
S617        H618   1.406       .  S
H619       S1345   1.406   1_545  S
C622        C623   1.402       .  A
C622        C627   1.408       .  A
C623        C624   1.399       .  A
C623        H632   1.083       .  S
C624        C625   1.421       .  A
C624        S628   1.813       .  S
C625        C626   1.411       .  A
C626        C627   1.404       .  A
C626        H633   1.082       .  S
C627        S629   1.806       .  S
S628        H631   1.406       .  S
S629        H630   1.407       .  S
C634        C639   1.411       .  A
C634       C1364   1.403       .  A
C635        C636   1.399       .  A
C635       C1363   1.409   1_545  A
C635        H644   1.081       .  S
C636        C637   1.414       .  A
C636        S640   1.812       .  S
C637       C1367   1.406   1_545  A
C638        C639   1.399       .  A
C638       C1366   1.408       .  A
C638        H645   1.083       .  S
C639        S641   1.801       .  S
S640        H643   1.406       .  S
S641       H2100   1.407       .  S
H642       S2099   1.406       .  S
C646        C651   1.409       .  A
C646       C1376   1.402       .  A
C647        C648   1.391       .  A
C647       C1375   1.401   1_545  A
C647        H656   1.084       .  S
C648        C649   1.419       .  A
C648        S652   1.803       .  S
C649       C1379   1.410   1_545  A
C650        C651   1.402       .  A
C650       C1378   1.410       .  A
C650        H657   1.082       .  S
C651        S653   1.808       .  S
S652        H655   1.408       .  S
S653        H654   1.407       .  S
C658        C659   1.400       .  A
C658        C663   1.412       .  A
C658       C1470   1.484       .  S
C659        C660   1.398       .  A
C659        H668   1.083       .  S
C660        C661   1.424       .  A
C660        S664   1.812       .  S
C661        C662   1.408       .  A
C662        C663   1.402       .  A
C662        H669   1.083       .  S
C663        S665   1.803       .  S
S664        H667   1.407       .  S
S665       H2124   1.406       .  S
H666       S2123   1.406   1_455  S
C670        C671   1.400       .  A
C670        C675   1.415       .  A
C671        C672   1.391       .  A
C671        H680   1.085       .  S
C672        C673   1.416       .  A
C672        S676   1.806       .  S
C673        C674   1.408       .  A
C673        C809   1.481       .  S
C674        C675   1.408       .  A
C674        H681   1.084       .  S
C675        S677   1.806       .  S
S676       H1408   1.404       .  S
S677        H678   1.403       .  S
H679       S1405   1.403   1_545  S
C682        C683   1.406       .  A
C682        C687   1.419       .  A
C683        C684   1.400       .  A
C683        H692   1.082       .  S
C684        C685   1.412       .  A
C684        S688   1.808   1_455  S
C685        C686   1.402       .  A
C686        C687   1.403       .  A
C686        H693   1.083       .  S
C687        S689   1.802       .  S
S688        H691   1.407       .  S
S689        H690   1.407       .  S
C694        C695   1.408       .  A
C694        C699   1.417       .  A
C695        C696   1.396       .  A
C695        H704   1.083       .  S
C696        C697   1.411       .  A
C696        S700   1.805       .  S
C697        C698   1.406       .  A
C698        C699   1.406       .  A
C698        H705   1.084       .  S
C699        S701   1.802       .  S
S700        H703   1.406       .  S
S701        H702   1.407       .  S
C706        C707   1.403       .  A
C706       C2169   1.414       .  A
C706       C1461   1.493       .  S
C707        C708   1.399       .  A
C707        H716   1.082       .  S
C708        C709   1.424       .  A
C708        S712   1.813       .  S
C709        C710   1.410       .  A
C710       C2169   1.405       .  A
C710        H717   1.083       .  S
C711       C2164   1.414       .  A
C711       C2168   1.405       .  A
C711        S713   1.803   1_655  S
S712        H715   1.406       .  S
S713        H714   1.407       .  S
C718        C719   1.408       .  A
C718        C723   1.410       .  A
C719        C720   1.407       .  A
C719        H728   1.084       .  S
C720        C721   1.412       .  A
C720       S2911   1.800   1_545  S
C721        C722   1.406       .  A
C722        C723   1.392       .  A
C722        H729   1.084       .  S
C723        S725   1.805       .  S
S724       C2907   1.802       .  S
S724        H727   1.404       .  S
S725        H726   1.406       .  S
C730        C731   1.400       .  A
C730        C735   1.399       .  A
C730       C1447   1.478       .  S
C731        C732   1.405       .  A
C731        H736   1.084   1_455  S
C732        C733   1.405       .  A
C732       C2893   1.490   1_455  S
C733        C734   1.406       .  A
C733        H737   1.083       .  S
C734        C735   1.406       .  A
C734       C1426   1.481       .  S
C735        H738   1.084       .  S
C739        C740   1.411       .  A
C739        C744   1.412       .  A
C739       C1411   1.497       .  S
C740        C741   1.404       .  A
C740       H2203   1.083   1_455  S
C741        C742   1.403       .  A
C741       C2845   1.490   1_455  S
C742        C743   1.399       .  A
C742        H746   1.084       .  S
C743        C744   1.403       .  A
C743       C1399   1.478       .  S
C744        H747   1.082       .  S
H745       C2198   1.083       .  S
C748       C1375   1.473       .  S
C748        N749   1.353       .  A
C748        N753   1.354       .  A
N749       C2208   1.354       .  A
C750       C1363   1.491       .  S
C750       N2207   1.356   1_455  A
C750       N2209   1.360   1_455  A
N751       C2208   1.358       .  A
N751        C752   1.360       .  A
C752       C1351   1.472       .  S
C752        N753   1.358       .  A
O754       Cr772   1.940       .  S
O754        C762   1.256       .  A
O755       Cr772   2.020       .  S
O755        C756   1.271       .  A
C756        C784   1.474       .  S
C756        O757   1.260       .  A
O757       Cr773   1.975       .  S
O758       Cr773   1.989       .  S
O758        C759   1.263       .  A
C759       C1327   1.478       .  S
C759        O760   1.260       .  A
O760       Cr774   1.982       .  S
O761       Cr774   2.031       .  S
O761        C762   1.270       .  A
C762        C800   1.466       .  S
O763       Cr772   2.016       .  S
O763        C771   1.264       .  A
O764       Cr772   1.959       .  S
O764        C765   1.251       .  A
C765       C1438   1.495       .  S
C765        O766   1.265       .  A
O766       Cr773   2.017       .  S
O767       Cr773   1.963       .  S
O767        C768   1.259       .  A
C768       C1378   1.486       .  S
C768        O769   1.270       .  A
O769       Cr774   2.012       .  S
Cr772       O775   1.770       .  S
Cr773       O775   1.775       .  S
Cr774       O775   1.781       .  S
O776       Cr794   1.972       .  S
O776        C784   1.260       .  A
O777       Cr794   2.030       .  S
O777        C778   1.274       .  A
C778        C806   1.468       .  S
C778        O779   1.260       .  A
O779       Cr795   1.957       .  S
O780       Cr795   1.988       .  S
O780        C781   1.261       .  A
C781       C1303   1.487       .  S
C781        O782   1.260       .  A
O782       Cr796   1.987       .  S
O783       Cr796   2.015       .  S
O783        C784   1.268       .  A
O785       Cr794   2.009       .  S
O785        C793   1.265       .  A
O786       Cr794   1.975       .  S
O786        C787   1.252       .  A
C787       C1315   1.493       .  S
C787        O788   1.260       .  A
O788       Cr795   2.008       .  S
O789       Cr795   1.966       .  S
O789        C790   1.261       .  A
C790       C1354   1.486       .  S
C790        O791   1.271       .  A
O791       Cr796   2.012       .  S
O792       Cr796   1.966       .  S
O792        C793   1.256       .  A
C793       C1390   1.492       .  S
Cr794       O797   1.781       .  S
Cr795       O797   1.778       .  S
Cr796       O797   1.776       .  S
O798       Cr816   2.019       .  S
O798        C806   1.267       .  A
O799       Cr816   1.946       .  S
O799        C800   1.258       .  A
C800        O801   1.270       .  A
O801       Cr817   2.030       .  S
O802       Cr817   1.976       .  S
O802        C803   1.259       .  A
C803       C1294   1.471       .  S
C803        O804   1.265       .  A
O804       Cr818   2.008       .  S
O805       Cr818   1.965       .  S
O805        C806   1.260       .  A
O807       Cr816   1.959       .  S
O807        C815   1.256       .  A
O808       Cr816   2.010       .  S
O808        C809   1.263       .  A
O811       Cr817   2.020       .  S
O811        C812   1.270       .  A
C812       C1366   1.488       .  S
C812        O813   1.255       .  A
O813       Cr818   1.955       .  S
O814       Cr818   2.015       .  S
O814        C815   1.267       .  A
C815       C1423   1.487       .  S
Cr816       O819   1.772       .  S
Cr817       O819   1.775       .  S
Cr818       O819   1.768       .  S
C820        C821   1.404       .  A
C820        C825   1.406       .  A
C820       C1279   1.487       .  S
C821        C822   1.403       .  A
C821        H826   1.084       .  S
C822        C823   1.405       .  A
C822       C1318   1.488       .  S
C823        C824   1.409       .  A
C823        H827   1.084       .  S
C824        C825   1.407       .  A
C824       C1339   1.486       .  S
C825        H828   1.084       .  S
C829        C830   1.415       .  A
C829        C834   1.412       .  A
C829       C1270   1.515       .  S
C830        C831   1.404       .  A
C830        H835   1.081       .  S
C831        C832   1.398       .  A
C831       C1258   1.477       .  S
C832        C833   1.398       .  A
C832        H836   1.084       .  S
C833        C834   1.404       .  A
C833       C1246   1.476       .  S
C834        H837   1.077       .  S
C838        C839   1.402       .  A
C838        C843   1.400       .  A
C838       C1231   1.481       .  S
C839        C840   1.404       .  A
C839        H844   1.083       .  S
C840        C841   1.408       .  A
C840       C1219   1.492       .  S
C841        C842   1.407       .  A
C841        H845   1.083       .  S
C842        C843   1.404       .  A
C842       C1207   1.484       .  S
C843        H846   1.084       .  S
C847       C1198   1.473       .  S
C847        N848   1.356       .  A
C847        N852   1.353       .  A
N848        C849   1.359       .  A
C849       C1183   1.473       .  S
C849        N850   1.360       .  A
N850        C851   1.357       .  A
C851       C1171   1.468       .  S
C851        N852   1.354       .  A
O853      Cr2329   1.962       .  S
O853        C861   1.261       .  A
O854       Cr871   2.012       .  S
O854        C855   1.269       .  A
C855        C883   1.467       .  S
C855        O856   1.261       .  A
O856       Cr872   1.975       .  S
O857       Cr872   2.000       .  S
O857        C858   1.262       .  A
C858       C1414   1.476       .  S
C858       O2317   1.259   1_455  A
O859       Cr873   1.977       .  S
O859       C2316   1.258       .  A
O860       Cr873   2.027       .  S
O860        C861   1.270       .  A
C861        C899   1.475       .  S
O862      Cr2329   1.998       .  S
O862        C870   1.260       .  A
O863       Cr871   1.968       .  S
O863        C864   1.254       .  A
C864       C1255   1.475       .  S
C864        O865   1.264       .  A
O865       Cr872   2.014       .  S
O866       Cr872   1.964       .  S
O866        C867   1.260       .  A
C867       C1195   1.464       .  S
C867        O868   1.269       .  A
O868      Cr2331   2.013   1_455  S
O869       Cr873   1.964       .  S
O869        C870   1.253       .  A
C870       C1222   1.473       .  S
Cr871      O2311   1.954   1_455  S
Cr871      O2320   2.000   1_455  S
Cr871       O874   1.773       .  S
Cr872       O874   1.785       .  S
Cr873      O2326   2.012       .  S
Cr873      O2332   1.777       .  S
O874      Cr2331   1.778   1_455  S
O875        C883   1.259       .  A
O876      Cr1622   2.030       .  S
O876        C877   1.273   1_545  A
C877        C905   1.467       .  S
O878       Cr894   1.968       .  S
O879       Cr894   1.999       .  S
O879       C2338   1.263       .  A
C880       C1450   1.478       .  S
C880       O2337   1.263       .  A
C880        O881   1.257       .  A
O881       Cr895   1.980       .  S
O882       Cr895   2.008       .  S
O884       Cr893   2.017       .  S
O884        C892   1.267       .  A
O885      Cr2351   1.969       .  S
O885        C886   1.253       .  A
C886       C1210   1.493       .  S
C886        O887   1.265       .  A
O887       Cr894   2.012       .  S
O888      Cr2352   1.961   1_455  S
O888        C889   1.260       .  A
C889       C1174   1.484       .  S
C889        O890   1.270       .  A
O890       Cr895   2.015       .  S
O891       Cr895   1.961       .  S
O891        C892   1.253       .  A
C892       C1159   1.492       .  S
Cr893      O1605   2.036   1_455  S
Cr893      O2343   1.972       .  S
Cr893       O896   1.778       .  S
Cr894      O2346   1.966       .  S
Cr894      O2354   1.773       .  S
Cr895       O896   1.776       .  S
O896      Cr2352   1.774   1_455  S
O897       Cr915   2.016       .  S
O897        C905   1.268       .  A
O898       Cr915   1.956       .  S
O898        C899   1.258       .  A
C899        O900   1.271       .  A
O900       Cr916   2.031       .  S
O901       Cr916   1.979       .  S
O901        C902   1.259       .  A
C902       C1282   1.474       .  S
C902        O903   1.263       .  A
O903       Cr917   2.007       .  S
O904       Cr917   1.969       .  S
O904        C905   1.263       .  A
O906       Cr915   1.964       .  S
O906        C914   1.256       .  A
O907       Cr915   2.014       .  S
O907        C908   1.264       .  A
C908       C1147   1.486       .  S
C908        O909   1.255       .  A
O909       Cr916   1.963       .  S
O910       Cr916   2.015       .  S
O910        C911   1.271       .  A
C911       C1186   1.486       .  S
C911        O912   1.261       .  A
O912       Cr917   1.970       .  S
O913       Cr917   2.015       .  S
O913        C914   1.264       .  A
C914       C1243   1.478       .  S
Cr915       O918   1.777       .  S
Cr916       O918   1.774       .  S
Cr917       O918   1.774       .  S
C919        C920   1.413       .  A
C919        C924   1.409       .  A
C919       C1135   1.495       .  S
C920        C921   1.404       .  A
C920        H925   1.083       .  S
C921        C922   1.400       .  A
C921       C1150   1.483       .  S
C922        C923   1.403       .  A
C922        H926   1.084       .  S
C923        C924   1.404       .  A
C923       C1162   1.487       .  S
C924        H927   1.083       .  S
C928        C929   1.400       .  A
C928        C933   1.404       .  A
C928       C1330   1.478       .  S
C929        C930   1.404   1_556  A
C930        C931   1.406       .  A
C931        C932   1.407       .  A
C931        H935   1.083       .  S
C932        C933   1.402   1_554  A
C932       C1123   1.497       .  S
C933        H936   1.082       .  S
C937        C938   1.401       .  A
C937        C942   1.403       .  A
C937       C1306   1.481       .  S
C938        C939   1.403   1_556  A
C938        H943   1.084       .  S
C939        C940   1.403       .  A
C939       C1099   1.474       .  S
C940        C941   1.402       .  A
C940        H944   1.084       .  S
C941        C942   1.402   1_554  A
C941       C1087   1.476       .  S
C942        H945   1.084       .  S
C946       C1054   1.477       .  S
C946        N947   1.356       .  A
C946        N951   1.354       .  A
N947        C948   1.354       .  A
C948       C1066   1.461       .  S
C948        N949   1.356       .  A
N949        C950   1.358       .  A
C950       C1075   1.474       .  S
C950        N951   1.356       .  A
O952       Cr970   2.024       .  S
O952        C960   1.272       .  A
O953       Cr970   1.955       .  S
O953        C954   1.259       .  A
C954       C1004   1.468       .  S
C954        O955   1.269       .  A
O955       Cr971   2.021       .  S
O956       Cr971   1.993       .  S
O956        C957   1.262       .  A
C957       C1234   1.488       .  S
C957        O958   1.256       .  A
O958       Cr972   1.979       .  S
O959       Cr972   1.970       .  S
O959        C960   1.261       .  A
C960        C976   1.472       .  S
O961       Cr970   1.980       .  S
O961        C969   1.255       .  A
O962       Cr970   2.001       .  S
O962        C963   1.262       .  A
C963       C2584   1.473   1_455  S
C963        O964   1.254   1_455  A
O964       Cr971   1.964   1_655  S
O965      Cr2429   2.005       .  S
O965        C966   1.271       .  A
C966       C1078   1.486       .  S
C966        O967   1.263       .  A
O967      Cr2430   1.971       .  S
O968       Cr972   2.009       .  S
O968        C969   1.261       .  A
C969       C2560   1.488   1_455  S
Cr970       O973   1.775       .  S
Cr971      O2423   2.007   1_455  S
Cr971       O973   1.781       .  S
Cr972      O2425   1.967   1_455  S
Cr972       O973   1.773       .  S
O974       Cr992   1.984       .  S
O974        C982   1.264       .  A
O975       Cr992   2.019       .  S
O975        C976   1.270       .  A
C976        O977   1.264       .  A
O977       Cr993   1.974       .  S
O978       Cr993   1.986       .  S
O978        C979   1.258       .  A
C979       C1267   1.487       .  S
C979        O980   1.261       .  A
O980       Cr994   1.988       .  S
O981       Cr994   2.008       .  S
O981        C982   1.266       .  A
C982        C998   1.474       .  S
O983       Cr992   2.002       .  S
O983        C991   1.262       .  A
O984       Cr992   2.000       .  S
O984        C985   1.262       .  A
C985       C1039   1.488       .  S
C985        O986   1.258       .  A
O986       Cr993   1.998       .  S
O987       Cr993   1.970       .  S
O987        C988   1.262       .  A
C988       C1063   1.478       .  S
C988        O989   1.266       .  A
O989       Cr994   2.009       .  S
O990       Cr994   1.975       .  S
O990        C991   1.258       .  A
C991       C1111   1.478       .  S
Cr992       O995   1.781       .  S
Cr993       O995   1.774       .  S
Cr994       O995   1.782       .  S
O996      Cr1014   1.955       .  S
O996       C1004   1.259       .  A
O997      Cr1014   2.006       .  S
O997        C998   1.265       .  A
C998        O999   1.263       .  A
O999      Cr1015   1.990       .  S
O1000     Cr1015   2.005       .  S
O1000      C1001   1.263       .  A
C1001      C1138   1.480       .  S
C1001      O1002   1.259       .  A
O1002     Cr1016   1.982       .  S
O1003     Cr1016   2.021       .  S
O1003      C1004   1.270       .  A
O1005     Cr1014   2.008       .  S
O1005      C1013   1.260       .  A
O1006     Cr1014   1.961       .  S
O1006      C1007   1.255       .  A
C1007      C1090   1.480       .  S
C1007      O1008   1.265       .  A
O1008     Cr1015   2.016       .  S
O1009     Cr1015   1.974       .  S
O1009      C1010   1.262       .  A
C1010      C1051   1.469       .  S
C1010      O1011   1.266       .  A
O1011     Cr1016   1.997       .  S
O1012     Cr1016   1.981       .  S
O1012      C1013   1.256       .  A
C1013      C1030   1.489       .  S
Cr1014     O1017   1.778       .  S
Cr1015     O1017   1.788       .  S
Cr1016     O1017   1.778       .  S
C1018      C1019   1.403       .  A
C1018      C1023   1.402       .  A
C1018      C1291   1.486       .  S
C1019      C1020   1.407   1_556  A
C1020      C1021   1.416       .  A
C1021      C1022   1.413       .  A
C1021      H1025   1.077       .  S
C1022      C1023   1.410   1_554  A
C1022      C1027   1.510       .  S
C1023      H1026   1.083       .  S
C1027      C1028   1.410       .  A
C1027      C1032   1.423       .  A
C1028      C1029   1.400       .  A
C1028      H1037   1.082       .  S
C1029      C1030   1.413       .  A
C1029      S1033   1.798       .  S
C1030      C1031   1.404       .  A
C1031      C1032   1.406       .  A
C1031      H1038   1.084       .  S
C1032      S1034   1.804       .  S
S1033      H1036   1.406       .  S
S1034      H1035   1.407       .  S
C1039      C1040   1.400       .  A
C1039      C1044   1.415       .  A
C1040      C1041   1.405       .  A
C1040      H1049   1.084       .  S
C1041      C1042   1.426       .  A
C1041      S1045   1.800   1_554  S
C1042      C1043   1.409       .  A
C1043      C1044   1.400       .  A
C1044      S1046   1.797       .  S
S1045      H1048   1.407       .  S
S1046      H1047   1.406       .  S
C1051      C1052   1.403       .  A
C1051      C1056   1.409       .  A
C1052      C1053   1.400       .  A
C1052      H1061   1.084       .  S
C1053      C1054   1.415       .  A
C1053      S1057   1.804       .  S
C1054      C1055   1.405       .  A
C1055      C1056   1.391       .  A
C1055      H1062   1.083       .  S
C1056      S1058   1.801       .  S
S1057      H1060   1.407       .  S
S1058      H1059   1.407       .  S
C1063      C1068   1.417       .  A
C1064      C1065   1.388       .  A
C1064      H1073   1.081       .  S
C1065      C1066   1.409       .  A
C1065      S1069   1.806       .  S
C1066      C1067   1.401       .  A
C1067      H1074   1.084       .  S
C1068      S1070   1.803       .  S
S1069      H1072   1.406       .  S
S1070      H1071   1.407       .  S
C1075      C1076   1.404       .  A
C1075      C1080   1.409       .  A
C1076      C1077   1.395       .  A
C1076      H1085   1.084       .  S
C1077      C1078   1.417       .  A
C1077      S1081   1.800       .  S
C1078      C1079   1.410       .  A
C1079      C1080   1.396       .  A
C1079      H1086   1.083       .  S
C1080      S1082   1.803       .  S
S1081      H1084   1.404       .  S
S1082      H1083   1.407       .  S
C1087      C1088   1.406       .  A
C1087      C1092   1.410       .  A
C1088      C1089   1.405       .  A
C1088      H1097   1.084       .  S
C1089      C1090   1.413       .  A
C1089      S1093   1.801       .  S
C1090      C1091   1.405       .  A
C1091      C1092   1.393       .  A
C1091      H1098   1.083       .  S
C1092      S1094   1.806       .  S
S1093      H1096   1.407       .  S
S1094      H1095   1.406       .  S
C1099      C1100   1.402       .  A
C1099      C1104   1.408       .  A
C1100      C1101   1.406       .  A
C1100      H1109   1.083       .  S
C1101      C1102   1.414       .  A
C1101      S1105   1.807       .  S
C1102      C1103   1.405       .  A
C1102      C2427   1.480       .  S
C1103      C1104   1.395       .  A
C1103      H1110   1.083       .  S
C1104      S1106   1.804       .  S
S1105      H1108   1.407       .  S
S1106      H1107   1.406       .  S
C1111      C1112   1.406       .  A
C1111      C1116   1.414       .  A
C1112      C1113   1.405       .  A
C1112      H1121   1.084       .  S
C1113      C1114   1.414       .  A
C1113      S1117   1.804       .  S
C1114      C1115   1.398       .  A
C1115      C1116   1.392       .  A
C1116      S1118   1.798       .  S
S1117      H1120   1.406       .  S
S1118      H1119   1.407       .  S
C1123      C1124   1.409       .  A
C1123      C1128   1.423       .  A
C1124      C1125   1.400       .  A
C1124      H1133   1.083       .  S
C1125      C1126   1.408       .  A
C1125      S1129   1.803       .  S
C1126      C1127   1.399       .  A
C1126      C2421   1.473       .  S
C1127      C1128   1.399       .  A
C1127      H1134   1.084       .  S
C1128      S1130   1.802   1_554  S
S1129      H1132   1.407       .  S
S1130      H1131   1.407   1_556  S
C1135      C1136   1.403       .  A
C1135      C1140   1.416       .  A
C1136      C1137   1.402       .  A
C1136      H1145   1.082       .  S
C1137      C1138   1.414       .  A
C1137      S1141   1.807       .  S
C1138      C1139   1.402       .  A
C1139      C1140   1.405       .  A
C1139      H1146   1.084       .  S
C1140      S1142   1.798       .  S
S1141      H1144   1.406       .  S
S1142      H1143   1.407       .  S
C1147      C1148   1.406       .  A
C1147      C1152   1.416       .  A
C1148      C1149   1.394       .  A
C1148      H1157   1.085       .  S
C1149      C1150   1.412       .  A
C1149      S1153   1.806       .  S
C1150      C1151   1.406       .  A
C1151      C1152   1.409       .  A
C1151      H1158   1.084       .  S
C1152      S1154   1.801       .  S
S1153      H1156   1.406       .  S
S1154      H1155   1.407       .  S
C1159      C1160   1.409       .  A
C1159      C1164   1.422       .  A
C1160      C1161   1.411       .  A
C1160      H1169   1.082       .  S
C1161      C1162   1.413       .  A
C1161      S1165   1.806       .  S
C1162      C1163   1.398       .  A
C1163      C1164   1.392       .  A
C1163      H1170   1.084       .  S
C1164      S1166   1.800       .  S
S1165      H1168   1.407       .  S
S1166      H1167   1.407       .  S
C1171      C1172   1.399       .  A
C1171      C1176   1.405       .  A
C1172      C1173   1.395       .  A
C1172      H1181   1.083       .  S
C1173      C1174   1.418       .  A
C1173      S1177   1.811       .  S
C1174      C1175   1.411       .  A
C1175      C1176   1.404       .  A
C1175      H1182   1.082       .  S
C1176      S1178   1.805       .  S
S1177      H1180   1.406       .  S
S1178      H1179   1.407       .  S
C1183      C1184   1.402       .  A
C1183      C1188   1.409       .  A
C1184      C1185   1.396       .  A
C1184      H1193   1.084       .  S
C1185      C1186   1.418       .  A
C1185      S1189   1.800       .  S
C1186      C1187   1.410       .  A
C1187      C1188   1.399       .  A
C1187      H1194   1.083       .  S
C1188      S1190   1.803       .  S
S1189      H1192   1.407       .  S
S1190      H1191   1.407       .  S
C1195      C1196   1.403       .  A
C1195      C1200   1.407       .  A
C1196      C1197   1.401       .  A
C1196      H1205   1.084       .  S
C1197      C1198   1.413       .  A
C1197      S1201   1.803       .  S
C1198      C1199   1.405       .  A
C1199      C1200   1.392       .  A
C1199      H1206   1.084       .  S
C1200      S1202   1.800       .  S
S1201      H1204   1.407       .  S
S1202      H1203   1.407       .  S
C1207      C2666   1.400       .  A
C1207      C1212   1.413       .  A
C1208      C2665   1.401       .  A
C1208      C1209   1.402       .  A
C1208      H1217   1.083       .  S
C1209      C2668   1.423       .  A
C1209      S1213   1.811       .  S
C1210      C2667   1.423       .  A
C1210      C1211   1.408       .  A
C1211      C1212   1.401       .  A
C1211      H1218   1.083       .  S
C1212      S1214   1.804       .  S
S1213      H1216   1.407       .  S
S1214      H1215   1.406       .  S
C1219      C1220   1.408       .  A
C1219      C2682   1.419       .  A
C1220      C1221   1.402       .  A
C1220      H1229   1.084       .  S
C1221      C1222   1.411       .  A
C1221      S1225   1.804       .  S
C1222      C2681   1.401       .  A
C1223      C2680   1.401   1_455  A
C1223      C1224   1.397       .  A
C1223      H1230   1.084       .  S
C1224      C2677   1.419   1_455  A
C1224      S1226   1.804       .  S
S1225      H1228   1.407       .  S
S1226      H1227   1.407       .  S
C1231      C1232   1.396       .  A
C1231      C2694   1.416       .  A
C1232      C1233   1.396       .  A
C1232      H1241   1.083       .  S
C1233      C2692   1.423       .  A
C1233      S1237   1.812       .  S
C1234      C2691   1.425       .  A
C1234      C1235   1.405       .  A
C1235      C1236   1.406       .  A
C1235      H1242   1.084       .  S
C1236      C2689   1.417       .  A
C1236      S1238   1.804       .  S
S1237      H1240   1.406       .  S
S1238      H1239   1.407       .  S
C1243      C1244   1.402       .  A
C1243      C1248   1.415       .  A
C1244      C1245   1.391       .  A
C1244      H1253   1.085       .  S
C1245      C1246   1.412       .  A
C1245      S1249   1.805       .  S
C1246      C1247   1.404       .  A
C1247      C1248   1.406       .  A
C1247      H1254   1.084       .  S
C1248      S1250   1.802       .  S
S1249      H1252   1.404       .  S
S1250      H1251   1.407       .  S
C1255      C1256   1.405       .  A
C1255      C1260   1.412       .  A
C1256      C1257   1.396       .  A
C1256      H1265   1.084       .  S
C1257      C1258   1.409       .  A
C1257      S1261   1.803       .  S
C1258      C1259   1.405       .  A
C1259      C1260   1.403       .  A
C1259      H1266   1.084       .  S
C1260      S1262   1.803       .  S
S1261      H1264   1.405       .  S
S1262      H1263   1.406       .  S
C1267      C1268   1.401       .  A
C1267      C1272   1.414       .  A
C1268      C1269   1.402       .  A
C1268      H1277   1.084       .  S
C1269      C1270   1.427       .  A
C1269      S1273   1.797       .  S
C1270      C1271   1.411       .  A
C1271      C1272   1.399       .  A
C1271      H1278   1.078       .  S
C1272      S1274   1.811       .  S
S1273      H1276   1.403       .  S
S1274      H1275   1.407       .  S
C1279      C1280   1.409       .  A
C1279      C1284   1.413       .  A
C1280      C1281   1.407       .  A
C1280      H1289   1.084       .  S
C1281      C1282   1.411       .  A
C1281      S1285   1.803       .  S
C1282      C1283   1.402       .  A
C1283      C1284   1.396       .  A
C1283      H1290   1.083       .  S
C1284      S1286   1.805       .  S
S1285      H1288   1.406       .  S
S1286      H1287   1.407       .  S
C1291      C1292   1.408       .  A
C1291      C1296   1.410       .  A
C1292      C1293   1.407       .  A
C1292      H1301   1.084       .  S
C1293      C1294   1.410       .  A
C1293      S1297   1.802       .  S
C1294      C1295   1.401       .  A
C1295      C1296   1.396       .  A
C1295      H1302   1.082       .  S
S1297      H1300   1.406       .  S
S1298      H1299   1.407       .  S
C1303      C1304   1.409       .  A
C1303      C1308   1.415       .  A
C1304      C1305   1.392       .  A
C1304      H1313   1.084       .  S
C1305      C1306   1.410       .  A
C1305      S1309   1.807       .  S
C1306      C1307   1.407       .  A
C1307      C1308   1.405       .  A
C1307      H1314   1.084       .  S
C1308      S1310   1.801       .  S
S1309      H1312   1.407       .  S
S1310      H1311   1.406       .  S
C1315      C1316   1.408       .  A
C1315      C1320   1.421       .  A
C1316      C1317   1.404       .  A
C1316      H1325   1.084       .  S
C1317      C1318   1.414       .  A
C1317      S1321   1.803       .  S
C1318      C1319   1.401       .  A
C1319      C1320   1.401       .  A
C1319      H1326   1.083       .  S
C1320      S1322   1.809       .  S
S1321      H1324   1.406       .  S
S1322      H1323   1.407       .  S
C1327      C1328   1.407       .  A
C1327      C1332   1.413       .  A
C1328      C1329   1.387       .  A
C1328      H1337   1.083       .  S
C1329      C1330   1.406       .  A
C1329      S1333   1.806       .  S
C1330      C1331   1.410       .  A
C1331      C1332   1.409       .  A
C1331      H1338   1.084       .  S
C1332      S1334   1.804       .  S
S1333      H1336   1.407       .  S
S1334      H1335   1.404       .  S
C1339      C1340   1.399       .  A
C1339      C1344   1.417       .  A
C1340      C1341   1.395       .  A
C1340      H1349   1.084       .  S
C1341      C1342   1.418       .  A
C1341      S1345   1.802       .  S
C1342      C1343   1.406       .  A
C1343      C1344   1.409       .  A
C1343      H1350   1.083       .  S
C1344      S1346   1.803       .  S
S1346      H1347   1.406       .  S
C1351      C1352   1.402       .  A
C1351      C1356   1.406       .  A
C1352      C1353   1.399       .  A
C1352      H1361   1.083       .  S
C1353      C1354   1.419       .  A
C1353      S1357   1.811       .  S
C1354      C1355   1.410       .  A
C1355      C1356   1.400       .  A
C1355      H1362   1.082       .  S
C1356      S1358   1.807       .  S
S1357      H1360   1.407       .  S
S1358      H1359   1.407       .  S
C1363      C1368   1.415       .  A
C1364      C1365   1.398       .  A
C1364      H1373   1.082       .  S
C1365      C1366   1.422       .  A
C1365      S1369   1.814       .  S
C1367      C1368   1.398       .  A
C1367      H1374   1.084       .  S
C1368      S1370   1.800       .  S
S1369      H1372   1.406       .  S
S1370      H2829   1.407       .  S
H1371      S2828   1.406       .  S
C1375      C1380   1.408       .  A
C1376      C1377   1.392       .  A
C1376      H1385   1.084       .  S
C1377      C1378   1.418       .  A
C1377      S1381   1.803       .  S
C1379      C1380   1.402       .  A
C1379      H1386   1.082       .  S
C1380      S1382   1.807       .  S
S1381      H1384   1.408       .  S
S1382      H1383   1.407       .  S
C1387      C1388   1.398       .  A
C1387      C1392   1.415       .  A
C1387      C2199   1.485       .  S
C1388      C1389   1.392       .  A
C1388      H1397   1.085       .  S
C1389      C1390   1.421       .  A
C1389      S1393   1.798       .  S
C1390      C1391   1.408       .  A
C1391      C1392   1.406       .  A
C1391      H1398   1.083       .  S
C1392      S1394   1.803       .  S
S1393      H1396   1.407       .  S
S1394      H2853   1.406       .  S
H1395      S2852   1.406   1_455  S
C1399      C1400   1.399       .  A
C1399      C1404   1.415       .  A
C1400      C1401   1.392       .  A
C1400      H1409   1.085       .  S
C1401      C1402   1.417       .  A
C1401      S1405   1.805       .  S
C1402      C1403   1.407       .  A
C1403      C1404   1.408       .  A
C1403      H1410   1.084       .  S
C1404      S1406   1.806       .  S
S1406      H1407   1.401       .  S
C1411      C1412   1.407       .  A
C1411      C1416   1.419       .  A
C1412      C1413   1.400       .  A
C1412      H1421   1.081   1_455  S
C1413      C1414   1.411       .  A
C1413      S1417   1.809   1_455  S
C1414      C1415   1.401       .  A
C1415      C1416   1.403       .  A
C1415      H1422   1.081       .  S
C1416      S1418   1.804       .  S
S1417      H1420   1.406       .  S
S1418      H1419   1.407       .  S
C1423      C1424   1.409       .  A
C1423      C1428   1.416       .  A
C1424      C1425   1.394       .  A
C1424      H1433   1.083       .  S
C1425      C1426   1.410       .  A
C1425      S1429   1.804       .  S
C1426      C1427   1.405       .  A
C1427      C1428   1.403       .  A
C1427      H1434   1.084       .  S
C1428      S1430   1.801       .  S
S1429      H1432   1.406       .  S
S1430      H1431   1.407       .  S
C1435      C1436   1.404       .  A
C1435      C2898   1.415       .  A
C1435      C2190   1.493       .  S
C1436      C1437   1.398       .  A
C1436      H1445   1.082       .  S
C1437      C1438   1.423       .  A
C1437      S1441   1.814       .  S
C1438      C1439   1.409       .  A
C1439      C2898   1.405       .  A
C1439      H1446   1.083       .  S
C1440      C2893   1.416       .  A
C1440      C2897   1.404       .  A
C1440      S1442   1.803   1_655  S
S1441      H1444   1.406       .  S
S1442      H1443   1.407       .  S
C1447      C1448   1.407       .  A
C1447      C1452   1.409       .  A
C1448      C1449   1.407       .  A
C1448      H1457   1.084       .  S
C1449      C1450   1.413       .  A
C1449      S2182   1.803       .  S
C1450      C1451   1.405       .  A
C1451      C1452   1.392       .  A
C1451      H1458   1.085       .  S
C1452      S1454   1.805       .  S
S1453      C2178   1.801   1_565  S
S1453      H1456   1.405       .  S
S1454      H1455   1.406       .  S
C1459      C1460   1.399       .  A
C1459      C1464   1.399       .  A
C1459      C2176   1.480       .  S
C1460      C1461   1.404       .  A
C1460      H1465   1.084       .  S
C1461      C1462   1.409       .  A
C1462      C1463   1.409       .  A
C1462      H1466   1.083       .  S
C1463      C1464   1.406       .  A
C1463      C2155   1.483       .  S
C1464      H1467   1.084       .  S
C1468      C1469   1.412       .  A
C1468      C1473   1.415       .  A
C1468      C2140   1.502       .  S
C1469      C1470   1.405       .  A
C1470      C1471   1.399       .  A
C1471      C1472   1.397       .  A
C1471      H1475   1.085       .  S
C1472      C1473   1.405       .  A
C1472      C2128   1.478       .  S
C1473      H1476   1.082       .  S
C1477      C2104   1.487       .  S
C1477      N1478   1.357       .  A
C1477      N1482   1.354       .  A
C1479      C2092   1.474       .  S
N1480      C1481   1.358       .  A
C1481      C2080   1.472       .  S
C1481      N1482   1.355       .  A
O1483     Cr1501   1.943       .  S
O1483      C1491   1.255       .  A
O1484     Cr1501   2.022       .  S
O1484      C1485   1.272       .  A
C1485      C1513   1.473       .  S
C1485      O1486   1.259       .  A
O1486     Cr1502   1.969       .  S
O1487     Cr1502   1.986       .  S
O1487      C1488   1.262       .  A
C1488      C2056   1.482       .  S
C1488      O1489   1.262       .  A
O1489     Cr1503   1.985       .  S
O1490     Cr1503   2.042       .  S
O1490      C1491   1.273       .  A
C1491      C1529   1.475       .  S
O1492     Cr1501   2.017       .  S
O1492      C1500   1.265   1_545  A
O1493     Cr1501   1.960       .  S
O1493      C1494   1.250       .  A
C1494      C2167   1.496       .  S
C1494      O1495   1.266       .  A
O1495     Cr1502   2.019       .  S
O1496     Cr1502   1.962       .  S
O1496      C1497   1.260       .  A
C1497      C2107   1.487       .  S
C1497      O1498   1.271       .  A
O1498     Cr1503   2.015       .  S
O1499     Cr2232   1.969       .  S
O1499      C2229   1.255       .  A
C1500      C2800   1.492       .  S
C1500      O2228   1.256       .  A
Cr1501     O1504   1.772       .  S
Cr1502     O1504   1.778       .  S
Cr1503     O2228   1.973   1_545  S
Cr1503     O1504   1.782       .  S
O1505     Cr1523   1.972       .  S
O1505      C1513   1.259       .  A
O1506     Cr1523   2.034       .  S
O1506      C1507   1.276       .  A
C1507      C1535   1.474       .  S
C1507      O1508   1.262       .  A
O1508     Cr1524   1.964       .  S
O1509     Cr1524   1.989       .  S
O1509      C1510   1.260       .  A
C1510      C2032   1.493       .  S
C1510      O1511   1.260       .  A
O1511     Cr1525   1.989       .  S
O1512     Cr1525   2.010       .  S
O1512      C1513   1.267       .  A
O1514     Cr1523   2.010       .  S
O1514      C1522   1.266       .  A
O1515     Cr1523   1.974       .  S
O1515      C1516   1.250       .  A
C1516      C2044   1.495       .  S
C1516      O1517   1.260       .  A
O1517     Cr1524   2.009       .  S
O1518     Cr1524   1.972       .  S
O1518      C1519   1.263       .  A
C1519      C2083   1.486       .  S
C1519      O1520   1.271       .  A
O1520     Cr1525   2.009       .  S
O1521     Cr1525   1.959       .  S
O1521      C1522   1.253       .  A
C1522      C2119   1.494       .  S
Cr1523     O1526   1.783       .  S
Cr1524     O1526   1.781       .  S
Cr1525     O1526   1.778       .  S
O1527     Cr1545   2.021       .  S
O1527      C1535   1.268       .  A
O1528     Cr1545   1.955       .  S
O1528      C1529   1.261       .  A
C1529      O1530   1.271       .  A
O1530     Cr1546   2.033       .  S
O1531     Cr1546   1.979       .  S
O1531      C1532   1.260       .  A
C1532      C2023   1.474       .  S
C1532      O1533   1.264       .  A
O1533     Cr1547   2.007       .  S
O1534     Cr1547   1.974       .  S
O1534      C1535   1.262       .  A
O1536     Cr1545   1.971       .  S
O1536      C1544   1.258       .  A
O1537     Cr1545   2.010       .  S
O1537      C1538   1.262   1_545  A
C1538      C2860   1.485       .  S
C1538      O2268   1.255       .  A
O1539     Cr2275   1.971       .  S
O1539      C2267   1.255       .  A
O1540     Cr1546   2.012       .  S
O1540      C1541   1.269       .  A
C1541      C2095   1.485       .  S
C1541      O1542   1.258       .  A
O1542     Cr1547   1.959       .  S
O1543     Cr1547   2.016       .  S
O1543      C1544   1.266       .  A
C1544      C2152   1.490       .  S
Cr1545     O1548   1.776       .  S
Cr1546     O2268   1.971   1_545  S
Cr1546     O1548   1.779       .  S
Cr1547     O1548   1.774       .  S
C1549      C1550   1.407       .  A
C1549      C1554   1.410       .  A
C1549      C2008   1.494       .  S
C1550      C1551   1.403       .  A
C1550      H1555   1.084       .  S
C1551      C1552   1.402       .  A
C1551      C2047   1.490       .  S
C1552      C1553   1.407       .  A
C1552      H1556   1.084       .  S
C1553      C1554   1.410       .  A
C1553      C2068   1.490       .  S
C1554      H1557   1.083       .  S
C1558      C1559   1.403       .  A
C1558      C1563   1.406       .  A
C1558      C1999   1.489       .  S
C1559      C1560   1.401       .  A
C1559      H1564   1.084       .  S
C1560      C1561   1.406       .  A
C1560      C1987   1.487       .  S
C1561      C1562   1.407       .  A
C1561      H1565   1.083       .  S
C1562      C1563   1.408       .  A
C1562      C1975   1.486       .  S
C1563      H1566   1.083       .  S
C1567      C1568   1.405       .  A
C1567      C1572   1.400       .  A
C1567      C1960   1.487       .  S
C1568      C1569   1.406       .  A
C1568      H1573   1.083       .  S
C1569      C1570   1.409       .  A
C1569      C1948   1.496       .  S
C1570      C1571   1.408       .  A
C1570      H1574   1.083       .  S
C1571      C1572   1.405       .  A
C1571      C1936   1.489       .  S
C1572      H1575   1.084       .  S
C1576      C1927   1.477       .  S
C1576      N1577   1.355       .  A
C1576      N1581   1.352       .  A
N1577      C1578   1.357       .  A
C1578      C1912   1.469       .  S
C1578      N1579   1.357       .  A
N1579      C1580   1.355       .  A
C1580      C1900   1.458       .  S
C1580      N1581   1.351       .  A
O1582      C1590   1.259       .  A
O1583     Cr1600   2.006       .  S
O1583      C1584   1.269       .  A
C1584      C1612   1.463       .  S
C1584      O1585   1.262       .  A
O1585     Cr1601   1.975       .  S
O1586     Cr1601   1.994       .  S
O1586      C1587   1.259       .  A
C1587      C2143   1.481       .  S
O1588     Cr1602   1.980       .  S
O1589     Cr1602   2.030       .  S
O1589      C1590   1.272       .  A
C1590      C1628   1.469       .  S
O1591      C1599   1.259       .  A
O1592     Cr1600   1.972       .  S
O1592      C1593   1.253       .  A
C1593      C1984   1.471       .  S
C1593      O1594   1.261       .  A
O1594     Cr1601   2.006       .  S
O1595     Cr1601   1.959       .  S
O1595      C1596   1.261       .  A
C1596      C1924   1.466       .  S
C1596      O1597   1.268       .  A
O1598     Cr1602   1.968       .  S
O1598      C1599   1.253       .  A
C1599      C1951   1.476       .  S
Cr1600     O1603   1.779       .  S
Cr1601     O1603   1.785       .  S
O1604     Cr2351   1.963       .  S
O1604      C1612   1.259       .  A
O1605      C1606   1.275       .  A
C1606      C1634   1.475       .  S
C1606      O2336   1.262       .  A
O1607     Cr1623   1.956       .  S
O1607      C2335   1.259       .  A
O1608     Cr1623   1.994   1_455  S
C1609      C2179   1.480       .  S
C1609      O1610   1.258       .  A
O1610     Cr1624   1.978       .  S
O1611     Cr1624   2.010       .  S
O1611      C2341   1.267   1_545  A
C1612      O2340   1.267       .  A
O1613     Cr1622   2.017       .  S
O1613      C1621   1.267       .  A
O1614      C1615   1.251       .  A
C1615      C1939   1.496       .  S
C1615      O1616   1.262   1_455  A
O1616     Cr1623   2.012       .  S
O1617      C1618   1.258       .  A
C1618      C1903   1.475       .  S
C1618      O1619   1.269       .  A
O1619     Cr1624   2.008       .  S
O1620     Cr1624   1.962       .  S
O1620      C1621   1.253       .  A
C1621      C1888   1.493       .  S
Cr1622     O2333   1.962   1_545  S
Cr1622     O1625   1.775       .  S
Cr1624     O1625   1.774       .  S
O1626     Cr1644   2.025       .  S
O1626      C1634   1.271       .  A
O1627     Cr1644   1.953       .  S
O1627      C1628   1.259       .  A
C1628      O1629   1.269       .  A
O1629     Cr1645   2.026       .  S
O1630     Cr1645   1.979       .  S
O1630      C1631   1.260       .  A
C1631      C2011   1.477       .  S
C1631      O1632   1.264       .  A
O1632     Cr1646   2.012       .  S
O1633     Cr1646   1.973       .  S
O1633      C1634   1.262       .  A
O1635     Cr1644   1.969       .  S
O1635      C1643   1.256       .  A
O1636     Cr1644   2.017       .  S
O1636      C1637   1.265       .  A
C1637      C1876   1.485       .  S
C1637      O1638   1.255       .  A
O1638     Cr1645   1.964       .  S
O1639     Cr1645   2.006       .  S
O1639      C1640   1.269       .  A
C1640      C1915   1.484       .  S
C1640      O1641   1.259       .  A
O1641     Cr1646   1.967       .  S
O1642     Cr1646   2.017       .  S
O1642      C1643   1.266       .  A
C1643      C1972   1.488       .  S
Cr1644     O1647   1.775       .  S
Cr1645     O1647   1.773       .  S
Cr1646     O1647   1.773       .  S
C1648      C1649   1.414       .  A
C1648      C1653   1.413       .  A
C1648      C1864   1.505       .  S
C1649      C1650   1.402       .  A
C1649      H1654   1.081       .  S
C1650      C1651   1.400       .  A
C1650      C1879   1.485       .  S
C1651      C1652   1.403       .  A
C1651      H1655   1.084       .  S
C1652      C1653   1.406       .  A
C1652      C1891   1.488       .  S
C1653      H1656   1.083       .  S
C1657      C1658   1.403       .  A
C1657      C1662   1.402       .  A
C1657      C2059   1.481       .  S
C1658      C1659   1.408   1_556  A
C1658      H2392   1.083   1_545  S
C1659      C1660   1.410       .  A
C1659      C2572   1.488   1_545  S
C1660      C1661   1.404       .  A
C1660      H1664   1.084       .  S
C1661      C1662   1.399   1_554  A
C1661      C1852   1.492       .  S
C1662      H1665   1.083       .  S
H1663      C2387   1.084       .  S
C1666      C1667   1.400       .  A
C1666      C1671   1.405       .  A
C1666      C2035   1.487       .  S
C1667      C1668   1.403   1_556  A
C1667      H1672   1.084       .  S
C1668      C1669   1.408       .  A
C1668      C1828   1.480       .  S
C1669      C1670   1.407       .  A
C1669      H1673   1.084       .  S
C1670      C1671   1.405   1_554  A
C1670      C1816   1.485       .  S
C1671      H1674   1.084       .  S
C1675      C1783   1.477       .  S
C1675      N1676   1.356       .  A
C1675      N1680   1.353       .  A
N1676      C1677   1.354       .  A
C1677      C1795   1.459       .  S
C1677      N1678   1.354       .  A
N1678      C1679   1.355       .  A
C1679      C1804   1.463       .  S
C1679      N1680   1.355       .  A
O1681     Cr1699   2.025       .  S
O1681      C1689   1.271       .  A
O1682     Cr1699   1.958       .  S
O1682      C1683   1.260       .  A
C1683      C1733   1.471       .  S
C1683      O1684   1.271       .  A
O1684     Cr1700   2.024       .  S
O1685     Cr1700   2.002       .  S
O1685      C1686   1.264       .  A
C1686      C1963   1.493       .  S
C1686      O1687   1.256       .  A
O1687     Cr1701   1.979       .  S
O1688     Cr1701   1.964       .  S
O1688      C1689   1.260       .  A
C1689      C1705   1.469       .  S
O1690     Cr1699   1.983       .  S
O1690      C1698   1.255       .  A
O1691     Cr1699   1.998       .  S
O1691      C1692   1.261       .  A
C1692      O1693   1.256       .  A
O1693     Cr1700   1.976       .  S
O1694      C1695   1.272       .  A
C1695      C1807   1.479       .  S
C1695      O1696   1.264       .  A
O1697     Cr1701   2.006       .  S
O1697      C1698   1.259       .  A
Cr1699     O1702   1.777       .  S
Cr1700     O1702   1.783       .  S
Cr1701     O1702   1.773       .  S
O1703     Cr1721   1.986       .  S
O1703      C1711   1.265       .  A
O1704     Cr1721   2.021       .  S
O1704      C1705   1.271       .  A
C1705      O1706   1.262       .  A
O1706     Cr1722   1.967       .  S
O1707     Cr1722   1.966       .  S
O1707      C1708   1.252       .  A
C1708      C1996   1.491       .  S
C1708      O1709   1.264       .  A
O1709     Cr1723   2.000       .  S
O1710     Cr1723   2.007       .  S
O1710      C1711   1.266       .  A
C1711      C1727   1.477       .  S
O1712     Cr1721   1.994       .  S
O1712      C1720   1.261       .  A
O1713     Cr1721   1.998       .  S
O1713      C1714   1.259       .  A
C1714      C1768   1.486       .  S
C1714      O1715   1.255       .  A
O1715     Cr1722   1.993       .  S
O1716     Cr1722   1.974       .  S
O1716      C1717   1.265       .  A
C1717      C1792   1.477       .  S
C1717      O1718   1.263       .  A
O1718     Cr1723   1.994       .  S
O1719     Cr1723   1.981       .  S
O1719      C1720   1.258       .  A
C1720      C1840   1.484       .  S
Cr1721     O1724   1.785       .  S
Cr1722     O1724   1.778       .  S
Cr1723     O1724   1.787       .  S
O1725     Cr1743   1.961       .  S
O1725      C1733   1.261       .  A
O1726     Cr1743   2.012       .  S
O1726      C1727   1.269       .  A
C1727      O1728   1.265       .  A
O1728     Cr1744   1.989       .  S
O1729     Cr1744   1.996       .  S
O1729      C1730   1.259       .  A
C1730      C1867   1.482       .  S
C1730      O1731   1.259       .  A
O1731     Cr1745   1.985       .  S
O1732     Cr1745   2.018       .  S
O1732      C1733   1.269       .  A
O1734     Cr1743   2.004       .  S
O1734      C1742   1.260       .  A
O1735     Cr1743   1.977       .  S
O1735      C1736   1.256       .  A
C1736      C1819   1.488       .  S
C1736      O1737   1.262       .  A
O1737     Cr1744   2.012       .  S
O1738     Cr1744   1.973       .  S
O1738      C1739   1.264       .  A
C1739      C1780   1.467       .  S
C1739      O1740   1.268       .  A
O1740     Cr1745   1.998       .  S
O1741     Cr1745   1.978       .  S
O1741      C1742   1.255       .  A
C1742      C1759   1.489       .  S
Cr1743     O1746   1.779       .  S
Cr1744     O1746   1.789       .  S
Cr1745     O1746   1.782       .  S
C1747      C1748   1.402       .  A
C1747      C1752   1.400       .  A
C1747      C2020   1.484       .  S
C1748      C1749   1.408   1_556  A
C1748      H2482   1.081       .  S
C1749      C1750   1.418       .  A
C1749      C2500   1.513   1_545  S
C1750      C1751   1.414       .  A
C1750      H1754   1.076       .  S
C1751      C1752   1.410   1_554  A
C1751      C1756   1.510       .  S
C1752      H1755   1.083       .  S
H1753      C2477   1.081       .  S
C1756      C1757   1.410       .  A
C1756      C1761   1.424       .  A
C1757      C1758   1.399       .  A
C1757      H1766   1.082       .  S
C1758      C1759   1.412       .  A
C1758      S1762   1.798       .  S
C1759      C1760   1.404       .  A
C1760      C1761   1.407       .  A
C1760      H1767   1.084       .  S
C1761      S1763   1.803       .  S
S1762      H1765   1.406       .  S
S1763      H1764   1.407       .  S
C1768      C1769   1.397       .  A
C1768      C1773   1.415       .  A
C1769      C1770   1.401       .  A
C1769      H1778   1.084       .  S
C1770      C1771   1.427       .  A
C1770      S1774   1.796   1_554  S
C1771      C1772   1.411       .  A
C1771      C2478   1.516       .  S
C1772      C1773   1.402       .  A
C1772      H2508   1.080       .  S
C1773      S1775   1.798       .  S
S1774      H1777   1.407       .  S
S1775      H1776   1.406       .  S
H1779      C2501   1.080   1_545  S
C1780      C1781   1.402       .  A
C1780      C1785   1.409       .  A
C1781      C1782   1.399       .  A
C1781      H1790   1.084       .  S
C1782      C1783   1.417       .  A
C1782      S1786   1.803       .  S
C1783      C1784   1.405       .  A
C1784      C1785   1.390       .  A
C1784      H1791   1.083       .  S
C1785      S1787   1.801       .  S
S1786      H1789   1.407       .  S
S1787      H1788   1.407       .  S
C1792      C2522   1.400       .  A
C1792      C1797   1.421       .  A
C1793      C2521   1.401   1_545  A
C1793      C1794   1.389       .  A
C1793      H1802   1.082   1_545  S
C1794      C1795   1.410       .  A
C1794      S1798   1.806       .  S
C1795      C1796   1.399       .  A
C1796      C2526   1.399   1_545  A
C1796      H1803   1.084       .  S
C1797      C2525   1.397       .  A
C1797      S1799   1.802       .  S
S1798      H1801   1.406       .  S
S1799      H1800   1.399       .  S
C1804      C1805   1.399       .  A
C1804      C1809   1.408       .  A
C1805      C1806   1.390       .  A
C1805      H1814   1.085       .  S
C1806      C1807   1.414       .  A
C1806      S1810   1.796       .  S
C1807      C1808   1.408       .  A
C1808      C1809   1.397       .  A
C1808      H1815   1.084       .  S
C1809      S1811   1.803       .  S
S1810      H1813   1.407       .  S
S1811      H1812   1.406       .  S
C1816      C1817   1.407       .  A
C1816      C1821   1.411       .  A
C1817      C1818   1.409       .  A
C1817      H1826   1.084       .  S
C1818      C1819   1.416       .  A
C1818      S1822   1.801       .  S
C1819      C1820   1.405       .  A
C1820      C1821   1.396       .  A
C1820      H1827   1.083       .  S
C1821      S1823   1.805       .  S
S1822      H1825   1.407       .  S
S1823      H1824   1.406       .  S
C1828      C1829   1.403       .  A
C1828      C1833   1.410       .  A
C1829      C1830   1.409       .  A
C1829      H1838   1.083       .  S
C1830      C1831   1.416       .  A
C1830      S1834   1.807   1_655  S
C1831      C1832   1.404       .  A
C1832      C1833   1.397       .  A
C1832      H1839   1.082       .  S
C1833      S1835   1.804       .  S
S1834      H1837   1.407   1_455  S
S1835      H1836   1.406       .  S
C1840      C1841   1.406       .  A
C1840      C1845   1.416       .  A
C1841      C1842   1.403       .  A
C1841      H1850   1.084       .  S
C1842      C1843   1.415       .  A
C1842      S1846   1.804       .  S
C1843      C1844   1.400       .  A
C1843      C2388   1.483       .  S
C1844      C1845   1.395       .  A
C1844      H2580   1.084       .  S
C1845      S1847   1.796       .  S
S1846      H1849   1.406       .  S
S1847      H1848   1.407       .  S
H1851      C2573   1.084   1_545  S
C1852      C1853   1.408       .  A
C1852      C1857   1.419       .  A
C1853      C1854   1.403       .  A
C1853      H1862   1.083       .  S
C1854      C1855   1.411       .  A
C1854      S1858   1.803       .  S
C1855      C1856   1.398       .  A
C1856      C1857   1.396       .  A
C1856      H1863   1.083       .  S
C1857      S1859   1.803       .  S
S1858      H1861   1.407   1_655  S
S1859      H1860   1.407       .  S
C1864      C1865   1.409       .  A
C1864      C1869   1.422       .  A
C1865      C1866   1.406       .  A
C1865      H1874   1.082       .  S
C1866      C1867   1.413       .  A
C1866      S1870   1.808       .  S
C1867      C1868   1.401       .  A
C1868      C1869   1.403       .  A
C1868      H1875   1.084       .  S
C1869      S1871   1.800       .  S
S1870      H1873   1.407       .  S
S1871      H1872   1.407       .  S
C1876      C1877   1.405       .  A
C1876      C1881   1.415       .  A
C1877      C1878   1.394       .  A
C1877      H1886   1.085       .  S
C1878      C1879   1.414       .  A
C1878      S1882   1.807       .  S
C1879      C1880   1.406       .  A
C1880      C1881   1.409       .  A
C1880      H1887   1.083       .  S
C1881      S1883   1.801       .  S
S1882      H1885   1.405       .  S
S1883      H1884   1.407       .  S
C1888      C1889   1.409       .  A
C1888      C1893   1.421       .  A
C1889      C1890   1.411       .  A
C1889      H1898   1.082       .  S
C1890      C1891   1.413       .  A
C1890      S1894   1.806       .  S
C1891      C1892   1.399       .  A
C1892      C1893   1.394       .  A
C1892      H1899   1.084       .  S
C1893      S1895   1.801       .  S
S1894      H1897   1.407       .  S
S1895      H1896   1.408       .  S
C1900      C1901   1.398       .  A
C1900      C1905   1.401       .  A
C1901      C1902   1.393       .  A
C1901      H1910   1.084       .  S
C1902      C1903   1.418       .  A
C1902      S1906   1.811       .  S
C1903      C1904   1.409       .  A
C1904      C1905   1.398       .  A
C1904      H1911   1.082       .  S
C1905      S1907   1.805       .  S
S1906      H1909   1.407       .  S
S1907      H1908   1.407       .  S
C1912      C1913   1.401       .  A
C1912      C1917   1.409       .  A
C1913      C1914   1.399       .  A
C1913      H1922   1.083       .  S
C1914      C1915   1.419       .  A
C1914      S1918   1.809       .  S
C1915      C1916   1.408       .  A
C1916      C1917   1.395       .  A
C1916      H1923   1.084       .  S
C1917      S1919   1.803       .  S
S1918      H1921   1.407       .  S
S1919      H1920   1.407       .  S
C1924      C1925   1.403       .  A
C1924      C1929   1.409       .  A
C1925      C1926   1.396       .  A
C1925      H1934   1.084       .  S
C1926      C1927   1.415       .  A
C1926      S1930   1.803       .  S
C1927      C1928   1.407       .  A
C1928      C1929   1.390       .  A
C1928      H1935   1.083       .  S
C1929      S1931   1.799       .  S
S1930      H1933   1.407       .  S
S1931      H1932   1.406       .  S
C1936      C1941   1.415   1_455  A
C1937      C1938   1.401       .  A
C1937      H1946   1.082       .  S
C1938      S1942   1.813       .  S
C1939      C1940   1.408   1_455  A
C1940      C1941   1.403       .  A
C1940      H1947   1.083       .  S
C1941      S1943   1.804       .  S
S1942      H1945   1.406       .  S
S1943      H1944   1.406       .  S
C1948      C1949   1.409   1_455  A
C1949      C1950   1.403       .  A
C1949      H1958   1.083       .  S
C1950      C1951   1.410       .  A
C1950      S1954   1.803       .  S
C1952      C1953   1.400       .  A
C1952      H1959   1.084       .  S
C1953      S1955   1.805       .  S
S1954      H1957   1.407       .  S
S1955      H1956   1.407       .  S
C1960      C1961   1.397       .  A
C1961      C1962   1.397       .  A
C1961      H1970   1.083   1_455  S
C1962      S1966   1.814   1_455  S
C1963      C1964   1.406       .  A
C1964      C1965   1.408       .  A
C1964      H1971   1.084       .  S
C1965      S1967   1.804       .  S
S1966      H1969   1.406       .  S
S1967      H1968   1.406       .  S
C1972      C1973   1.407       .  A
C1972      C1977   1.415       .  A
C1973      C1974   1.398       .  A
C1973      H1982   1.084       .  S
C1974      C1975   1.413       .  A
C1974      S1978   1.804       .  S
C1975      C1976   1.406       .  A
C1976      C1977   1.405       .  A
C1976      H1983   1.084       .  S
C1977      S1979   1.801       .  S
S1978      H1981   1.407       .  S
S1979      H1980   1.407       .  S
C1984      C1985   1.403       .  A
C1984      C1989   1.408       .  A
C1985      C1986   1.400       .  A
C1985      H1994   1.083       .  S
C1986      C1987   1.415       .  A
C1986      S1990   1.804       .  S
C1987      C1988   1.409       .  A
C1988      C1989   1.400       .  A
C1988      H1995   1.084       .  S
C1989      S1991   1.804       .  S
S1990      H1993   1.407       .  S
S1991      H1992   1.406       .  S
C1996      C1997   1.405       .  A
C1996      C2001   1.429       .  A
C1997      C1998   1.405       .  A
C1997      H2006   1.084       .  S
C1998      C1999   1.412       .  A
C1998      S2002   1.794       .  S
C1999      C2000   1.398       .  A
C2000      C2001   1.396       .  A
C2000      H2007   1.082       .  S
C2001      S2003   1.818       .  S
S2002      H2005   1.407       .  S
S2003      H2004   1.406       .  S
C2008      C2009   1.410       .  A
C2008      C2013   1.416       .  A
C2009      C2010   1.409       .  A
C2009      H2018   1.084       .  S
C2010      C2011   1.413       .  A
C2010      S2014   1.804       .  S
C2011      C2012   1.401       .  A
C2012      C2013   1.396       .  A
C2012      H2019   1.084       .  S
C2013      S2015   1.805       .  S
S2014      H2017   1.405       .  S
S2015      H2016   1.407       .  S
C2020      C2021   1.408       .  A
C2020      C2025   1.409       .  A
C2021      C2022   1.408       .  A
C2021      H2030   1.084       .  S
C2022      C2023   1.411       .  A
C2022      S2026   1.802       .  S
C2023      C2024   1.402       .  A
C2024      C2025   1.398       .  A
C2024      H2031   1.082       .  S
C2025      S2756   1.805   1_545  S
S2026      H2029   1.406       .  S
S2027      C2754   1.804       .  S
S2027      H2028   1.407       .  S
C2032      C2033   1.411       .  A
C2032      C2037   1.416       .  A
C2033      C2034   1.394       .  A
C2033      H2042   1.084       .  S
C2034      C2035   1.410       .  A
C2034      S2038   1.806       .  S
C2035      C2036   1.409       .  A
C2036      C2037   1.407       .  A
C2036      H2043   1.084       .  S
C2037      S2039   1.802       .  S
S2038      H2041   1.407       .  S
S2039      H2040   1.407       .  S
C2044      C2045   1.408       .  A
C2044      C2049   1.422       .  A
C2045      C2046   1.405       .  A
C2045      H2054   1.084       .  S
C2046      C2047   1.415       .  A
C2046      S2050   1.804       .  S
C2047      C2048   1.401       .  A
C2048      C2049   1.402       .  A
C2048      H2055   1.083       .  S
C2049      S2051   1.810       .  S
S2050      H2053   1.407       .  S
S2051      H2052   1.407       .  S
C2056      C2057   1.408       .  A
C2056      C2061   1.412       .  A
C2057      C2058   1.388       .  A
C2057      H2066   1.083       .  S
C2058      C2059   1.408       .  A
C2058      S2062   1.807       .  S
C2059      C2060   1.410       .  A
C2060      C2061   1.409       .  A
C2060      H2067   1.084       .  S
C2061      S2063   1.802       .  S
S2062      H2065   1.407       .  S
S2063      H2064   1.406       .  S
C2068      C2069   1.400       .  A
C2068      C2073   1.416       .  A
C2069      C2070   1.399       .  A
C2069      H2078   1.083       .  S
C2070      C2071   1.419       .  A
C2070      S2074   1.809       .  S
C2071      C2072   1.407       .  A
C2071      C2229   1.491       .  S
C2072      C2073   1.408       .  A
C2072      H2079   1.083       .  S
C2073      S2075   1.803       .  S
S2074      H2806   1.407       .  S
S2075      H2076   1.406       .  S
H2077      S2803   1.407   1_545  S
C2080      C2081   1.402       .  A
C2080      C2085   1.406       .  A
C2081      C2082   1.401       .  A
C2081      H2090   1.083       .  S
C2082      C2083   1.418       .  A
C2082      S2086   1.811       .  S
C2083      C2084   1.410       .  A
C2084      C2085   1.399       .  A
C2084      H2091   1.082       .  S
C2085      S2087   1.806       .  S
S2086      H2089   1.407       .  S
S2087      H2088   1.407       .  S
C2092      C2822   1.402       .  A
C2092      C2097   1.408       .  A
C2093      C2821   1.402   1_545  A
C2093      C2094   1.396       .  A
C2093      H2102   1.082       .  S
C2094      C2095   1.420       .  A
C2094      S2098   1.813       .  S
C2095      C2825   1.409   1_545  A
C2096      C2824   1.410       .  A
C2096      C2097   1.400       .  A
C2096      H2103   1.083       .  S
C2097      S2099   1.802       .  S
S2098      H2101   1.406       .  S
C2104      C2834   1.406       .  A
C2104      C2109   1.416       .  A
C2105      C2833   1.402   1_545  A
C2105      C2106   1.397       .  A
C2105      H2114   1.083       .  S
C2106      C2107   1.420       .  A
C2106      S2110   1.812       .  S
C2107      C2837   1.411   1_545  A
C2108      C2836   1.405       .  A
C2108      C2109   1.401       .  A
C2108      H2115   1.082       .  S
C2109      S2111   1.809       .  S
S2110      H2113   1.407       .  S
S2111      H2112   1.407       .  S
C2116      C2117   1.401       .  A
C2116      C2121   1.415       .  A
C2117      C2118   1.398       .  A
C2117      H2126   1.083   1_655  S
C2118      C2119   1.424       .  A
C2118      S2122   1.812       .  S
C2119      C2120   1.408       .  A
C2120      C2121   1.404       .  A
C2120      H2127   1.083       .  S
C2121      S2123   1.804       .  S
S2122      H2125   1.407       .  S
C2128      C2129   1.398       .  A
C2128      C2133   1.413       .  A
C2129      C2130   1.392       .  A
C2129      H2138   1.085       .  S
C2130      C2131   1.417       .  A
C2130      S2134   1.804       .  S
C2131      C2132   1.408       .  A
C2131      C2267   1.482       .  S
C2132      C2133   1.409       .  A
C2132      H2139   1.084       .  S
C2133      S2135   1.804       .  S
S2134      H2866   1.402       .  S
S2135      H2136   1.404       .  S
H2137      S2863   1.404   1_545  S
C2140      C2141   1.409       .  A
C2140      C2145   1.420       .  A
C2141      C2142   1.404       .  A
C2141      H2150   1.082       .  S
C2142      C2143   1.412       .  A
C2142      S2146   1.808       .  S
C2143      C2144   1.403       .  A
C2144      C2145   1.404       .  A
C2144      H2151   1.082       .  S
C2145      S2147   1.804       .  S
S2146      H2149   1.407       .  S
S2147      H2148   1.407       .  S
C2152      C2153   1.408       .  A
C2152      C2157   1.417       .  A
C2153      C2154   1.397       .  A
C2153      H2162   1.083       .  S
C2154      C2155   1.412       .  A
C2154      S2158   1.805       .  S
C2155      C2156   1.404       .  A
C2156      C2157   1.404       .  A
C2156      H2163   1.084       .  S
C2157      S2159   1.801       .  S
S2158      H2161   1.406       .  S
S2159      H2160   1.408       .  S
C2164      C2165   1.402       .  A
C2165      C2166   1.399       .  A
C2165      H2174   1.082       .  S
C2166      C2167   1.424       .  A
C2166      S2170   1.813       .  S
C2167      C2168   1.409       .  A
C2168      H2175   1.083       .  S
C2169      S2171   1.803       .  S
S2170      H2173   1.407       .  S
S2171      H2172   1.407       .  S
C2176      C2177   1.407       .  A
C2176      C2181   1.410       .  A
C2177      C2178   1.405       .  A
C2177      H2186   1.084       .  S
C2178      C2179   1.413       .  A
C2179      C2180   1.407       .  A
C2180      C2181   1.392       .  A
C2180      H2187   1.084       .  S
C2181      S2183   1.806       .  S
S2182      H2185   1.405   1_455  S
S2183      H2184   1.407       .  S
C2188      C2189   1.398       .  A
C2188      C2193   1.397       .  A
C2188      C2905   1.477       .  S
C2189      C2190   1.405       .  A
C2189      H2194   1.084       .  S
C2190      C2191   1.410       .  A
C2191      C2192   1.409       .  A
C2191      H2195   1.083       .  S
C2192      C2193   1.404       .  A
C2192      C2884   1.481       .  S
C2193      H2196   1.084       .  S
C2197      C2198   1.412       .  A
C2197      C2202   1.412       .  A
C2197      C2869   1.499       .  S
C2198      C2199   1.404       .  A
C2199      C2200   1.401       .  A
C2200      C2201   1.400       .  A
C2200      H2204   1.084       .  S
C2201      C2202   1.402       .  A
C2201      C2857   1.480       .  S
C2202      H2205   1.081       .  S
C2206      C2833   1.473       .  S
C2206      N2207   1.354       .  A
C2206      N2211   1.355       .  A
C2208      C2821   1.473       .  S
N2209      C2210   1.360       .  A
C2210      C2809   1.473       .  S
C2210      N2211   1.357       .  A
O2212     Cr2230   1.944       .  S
O2212      C2220   1.255       .  A
O2213     Cr2230   2.019       .  S
O2213      C2214   1.271       .  A
C2214      C2242   1.477       .  S
C2214      O2215   1.260       .  A
O2215     Cr2231   1.979       .  S
O2216     Cr2231   1.991       .  S
O2216      C2217   1.265       .  A
C2217      C2785   1.481       .  S
C2217      O2218   1.262       .  A
O2218     Cr2232   1.981       .  S
O2219     Cr2232   2.034       .  S
O2219      C2220   1.271       .  A
C2220      C2258   1.469       .  S
O2221     Cr2230   2.016       .  S
O2221      C2229   1.265       .  A
O2222     Cr2230   1.955       .  S
O2222      C2223   1.250       .  A
C2223      C2896   1.495       .  S
C2223      O2224   1.267       .  A
O2224     Cr2231   2.019       .  S
O2225     Cr2231   1.973       .  S
O2225      C2226   1.262       .  A
C2226      C2836   1.483       .  S
C2226      O2227   1.268       .  A
O2227     Cr2232   2.011       .  S
Cr2230     O2233   1.771       .  S
Cr2231     O2233   1.777       .  S
Cr2232     O2233   1.781       .  S
O2234     Cr2252   1.971       .  S
O2234      C2242   1.259       .  A
O2235     Cr2252   2.040       .  S
O2235      C2236   1.277       .  A
C2236      C2264   1.474       .  S
C2236      O2237   1.260       .  A
O2237     Cr2253   1.958       .  S
O2238     Cr2253   1.990       .  S
O2238      C2239   1.261       .  A
C2239      C2761   1.485       .  S
C2239      O2240   1.259       .  A
O2240     Cr2254   1.985       .  S
O2241     Cr2254   2.019       .  S
O2241      C2242   1.269       .  A
O2243     Cr2252   2.015       .  S
O2243      C2251   1.268       .  A
O2244     Cr2252   1.973       .  S
O2244      C2245   1.251       .  A
C2245      C2773   1.494       .  S
C2245      O2246   1.260       .  A
O2246     Cr2253   2.009       .  S
O2247     Cr2253   1.968       .  S
O2247      C2248   1.261       .  A
C2248      C2812   1.488       .  S
C2248      O2249   1.272       .  A
O2249     Cr2254   2.020       .  S
O2250     Cr2254   1.956       .  S
O2250      C2251   1.253       .  A
C2251      C2848   1.496       .  S
Cr2252     O2255   1.782       .  S
Cr2253     O2255   1.778       .  S
Cr2254     O2255   1.777       .  S
O2256     Cr2274   2.022       .  S
O2256      C2264   1.268       .  A
O2257     Cr2274   1.953       .  S
O2257      C2258   1.260       .  A
C2258      O2259   1.270       .  A
O2259     Cr2275   2.027       .  S
O2260     Cr2275   1.976       .  S
O2260      C2261   1.259       .  A
C2261      C2752   1.472       .  S
C2261      O2262   1.263       .  A
O2262     Cr2276   2.004       .  S
O2263     Cr2276   1.972       .  S
O2263      C2264   1.262       .  A
O2265     Cr2274   1.972       .  S
O2265      C2273   1.258       .  A
O2266     Cr2274   2.011       .  S
O2266      C2267   1.262       .  A
O2269     Cr2275   2.014       .  S
O2269      C2270   1.269       .  A
C2270      C2824   1.487       .  S
C2270      O2271   1.259       .  A
O2271     Cr2276   1.962       .  S
O2272     Cr2276   2.013       .  S
O2272      C2273   1.266       .  A
C2273      C2881   1.489       .  S
Cr2274     O2277   1.777       .  S
Cr2275     O2277   1.777       .  S
Cr2276     O2277   1.772       .  S
C2278      C2279   1.406       .  A
C2278      C2283   1.410       .  A
C2278      C2737   1.493       .  S
C2279      C2280   1.402       .  A
C2279      H2284   1.084       .  S
C2280      C2281   1.404       .  A
C2280      C2776   1.489       .  S
C2281      C2282   1.407       .  A
C2281      H2285   1.084       .  S
C2282      C2283   1.409       .  A
C2282      C2797   1.490       .  S
C2283      H2286   1.083       .  S
C2287      C2288   1.415       .  A
C2287      C2292   1.407       .  A
C2287      C2728   1.510       .  S
C2288      C2289   1.405       .  A
C2288      H2293   1.082       .  S
C2289      C2290   1.399       .  A
C2289      C2716   1.478       .  S
C2290      C2291   1.400       .  A
C2290      H2294   1.084       .  S
C2291      C2292   1.403       .  A
C2291      C2704   1.475       .  S
C2292      H2295   1.079       .  S
C2296      C2297   1.403       .  A
C2296      C2301   1.400       .  A
C2296      C2689   1.484       .  S
C2297      C2298   1.404       .  A
C2297      H2302   1.083       .  S
C2298      C2299   1.408       .  A
C2298      C2677   1.493   1_455  S
C2299      C2300   1.407       .  A
C2299      H2303   1.083   1_455  S
C2300      C2301   1.405       .  A
C2300      C2665   1.485       .  S
C2301      H2304   1.084       .  S
C2305      C2656   1.472       .  S
C2305      N2306   1.355       .  A
C2305      N2310   1.352       .  A
N2306      C2307   1.358       .  A
C2307      C2641   1.473       .  S
C2307      N2308   1.361       .  A
N2308      C2309   1.358       .  A
C2309      C2629   1.467       .  S
C2309      N2310   1.353       .  A
O2311      C2319   1.259       .  A
O2312     Cr2329   2.008       .  S
O2312      C2313   1.268       .  A
C2313      C2341   1.463       .  S
C2313      O2314   1.261       .  A
O2314     Cr2330   1.974       .  S
O2315     Cr2330   2.003       .  S
O2315      C2316   1.262       .  A
C2316      C2872   1.477       .  S
O2317     Cr2331   1.979       .  S
O2318     Cr2331   2.031       .  S
O2318      C2319   1.271       .  A
C2319      C2357   1.472       .  S
O2320      C2328   1.261       .  A
O2321     Cr2329   1.972       .  S
O2321      C2322   1.255       .  A
C2322      C2713   1.476       .  S
C2322      O2323   1.263       .  A
O2323     Cr2330   2.015       .  S
O2324     Cr2330   1.961       .  S
O2324      C2325   1.260       .  A
C2325      C2653   1.462       .  S
C2325      O2326   1.270       .  A
O2327     Cr2331   1.968       .  S
O2327      C2328   1.253       .  A
C2328      C2680   1.475       .  S
Cr2329     O2332   1.772       .  S
Cr2330     O2332   1.786       .  S
O2333      C2341   1.259       .  A
O2334      C2335   1.276       .  A
C2335      C2363   1.469   1_545  S
O2336     Cr2352   1.965       .  S
O2337     Cr2352   1.999   1_455  S
C2338      C2908   1.476       .  S
C2338      O2339   1.257       .  A
O2339     Cr2353   1.976       .  S
O2340     Cr2353   2.011       .  S
O2342     Cr2351   2.014       .  S
O2342      C2350   1.266       .  A
O2343      C2344   1.252       .  A
C2344      C2668   1.493       .  S
C2344      O2345   1.263   1_455  A
O2345     Cr2352   2.009       .  S
O2346      C2347   1.261       .  A
C2347      C2632   1.483       .  S
C2347      O2348   1.268       .  A
O2348     Cr2353   2.011       .  S
O2349     Cr2353   1.960       .  S
O2349      C2350   1.252       .  A
C2350      C2617   1.494       .  S
Cr2351     O2354   1.776       .  S
Cr2353     O2354   1.773       .  S
O2355     Cr2373   2.015       .  S
O2355      C2363   1.267       .  A
O2356     Cr2373   1.954       .  S
O2356      C2357   1.258       .  A
C2357      O2358   1.270       .  A
O2358     Cr2374   2.028       .  S
O2359     Cr2374   1.978       .  S
O2359      C2360   1.260       .  A
C2360      C2740   1.475       .  S
C2360      O2361   1.263       .  A
O2361     Cr2375   2.006       .  S
O2362     Cr2375   1.973       .  S
O2362      C2363   1.263       .  A
O2364     Cr2373   1.959       .  S
O2364      C2372   1.257       .  A
O2365     Cr2373   2.017       .  S
O2365      C2366   1.264       .  A
C2366      C2605   1.486       .  S
C2366      O2367   1.255       .  A
O2367     Cr2374   1.968       .  S
O2368     Cr2374   2.006       .  S
O2368      C2369   1.268       .  A
C2369      C2644   1.486       .  S
C2369      O2370   1.263       .  A
O2370     Cr2375   1.978       .  S
O2371     Cr2375   2.010       .  S
O2371      C2372   1.263       .  A
C2372      C2701   1.478       .  S
Cr2373     O2376   1.778       .  S
Cr2374     O2376   1.774       .  S
Cr2375     O2376   1.775       .  S
C2377      C2378   1.413       .  A
C2377      C2382   1.410       .  A
C2377      C2593   1.497       .  S
C2378      C2379   1.403       .  A
C2378      H2383   1.083       .  S
C2379      C2380   1.400       .  A
C2379      C2608   1.484       .  S
C2380      C2381   1.406       .  A
C2380      H2384   1.084       .  S
C2381      C2382   1.408       .  A
C2381      C2620   1.495       .  S
C2382      H2385   1.083       .  S
C2386      C2387   1.401       .  A
C2386      C2391   1.403       .  A
C2386      C2788   1.479       .  S
C2387      C2388   1.405   1_556  A
C2388      C2389   1.406       .  A
C2389      C2390   1.407       .  A
C2389      H2393   1.083       .  S
C2390      C2391   1.400   1_554  A
C2390      C2581   1.496       .  S
C2391      H2394   1.081       .  S
C2395      C2396   1.398       .  A
C2395      C2400   1.403       .  A
C2395      C2764   1.479       .  S
C2396      C2397   1.402   1_556  A
C2396      H2401   1.084       .  S
C2397      C2398   1.407       .  A
C2397      C2557   1.480       .  S
C2398      C2399   1.407       .  A
C2398      H2402   1.084       .  S
C2399      C2400   1.404   1_554  A
C2399      C2545   1.483       .  S
C2400      H2403   1.084       .  S
C2404      C2512   1.476       .  S
C2404      N2405   1.352       .  A
C2404      N2409   1.354       .  A
N2405      C2406   1.350       .  A
C2406      C2524   1.458       .  S
C2406      N2407   1.355       .  A
N2407      C2408   1.357       .  A
C2408      C2533   1.468       .  S
C2408      N2409   1.358       .  A
O2410     Cr2428   2.020       .  S
O2410      C2418   1.270       .  A
O2411     Cr2428   1.947       .  S
O2411      C2412   1.258       .  A
C2412      C2462   1.463       .  S
C2412      O2413   1.269       .  A
O2413     Cr2429   2.023       .  S
O2414     Cr2429   1.995       .  S
O2414      C2415   1.263       .  A
C2415      C2692   1.486       .  S
C2415      O2416   1.257       .  A
O2416     Cr2430   1.981       .  S
O2417     Cr2430   1.978       .  S
O2417      C2418   1.261       .  A
C2418      C2434   1.473       .  S
O2419     Cr2428   1.972       .  S
O2419      C2427   1.255       .  A
O2420     Cr2428   2.001       .  S
O2420      C2421   1.261       .  A
C2421      O2422   1.256       .  A
O2422     Cr2429   1.970       .  S
O2423      C2424   1.271       .  A
C2424      C2536   1.483       .  S
C2424      O2425   1.264       .  A
O2426     Cr2430   2.007       .  S
O2426      C2427   1.261       .  A
Cr2428     O2431   1.773       .  S
Cr2429     O2431   1.779       .  S
Cr2430     O2431   1.773       .  S
O2432     Cr2450   1.980       .  S
O2432      C2440   1.264       .  A
O2433     Cr2450   2.021       .  S
O2433      C2434   1.272       .  A
C2434      O2435   1.265       .  A
O2435     Cr2451   1.977       .  S
O2436     Cr2451   1.976       .  S
O2436      C2437   1.254       .  A
C2437      C2725   1.493       .  S
C2437      O2438   1.262       .  A
O2438     Cr2452   1.994       .  S
O2439     Cr2452   2.006       .  S
O2439      C2440   1.266       .  A
C2440      C2456   1.472       .  S
O2441     Cr2450   2.000       .  S
O2441      C2449   1.262       .  A
O2442     Cr2450   1.994       .  S
O2442      C2443   1.258       .  A
C2443      C2497   1.484       .  S
C2443      O2444   1.256       .  A
O2444     Cr2451   1.996       .  S
O2445     Cr2451   1.965       .  S
O2445      C2446   1.262       .  A
C2446      C2521   1.472       .  S
C2446      O2447   1.266       .  A
O2447     Cr2452   2.006       .  S
O2448     Cr2452   1.977       .  S
O2448      C2449   1.258       .  A
C2449      C2569   1.488       .  S
Cr2450     O2453   1.783       .  S
Cr2451     O2453   1.777       .  S
Cr2452     O2453   1.785       .  S
O2454     Cr2472   1.947       .  S
O2454      C2462   1.259       .  A
O2455     Cr2472   2.008       .  S
O2455      C2456   1.266       .  A
C2456      O2457   1.261       .  A
O2457     Cr2473   1.984       .  S
O2458     Cr2473   2.008       .  S
O2458      C2459   1.263       .  A
C2459      C2596   1.482       .  S
C2459      O2460   1.259       .  A
O2460     Cr2474   1.981       .  S
O2461     Cr2474   2.023       .  S
O2461      C2462   1.271       .  A
O2463     Cr2472   2.007       .  S
O2463      C2471   1.259       .  A
O2464     Cr2472   1.967       .  S
O2464      C2465   1.257       .  A
C2465      C2548   1.487       .  S
C2465      O2466   1.267       .  A
O2466     Cr2473   2.017       .  S
O2467     Cr2473   1.958       .  S
O2467      C2468   1.258       .  A
C2468      C2509   1.462       .  S
C2468      O2469   1.268       .  A
O2469     Cr2474   2.000       .  S
O2470     Cr2474   1.981       .  S
O2470      C2471   1.255       .  A
C2471      C2488   1.488       .  S
Cr2472     O2475   1.775       .  S
Cr2473     O2475   1.784       .  S
Cr2474     O2475   1.778       .  S
C2476      C2477   1.402       .  A
C2476      C2481   1.401       .  A
C2476      C2749   1.486       .  S
C2477      C2478   1.408   1_556  A
C2478      C2479   1.418       .  A
C2479      C2480   1.415       .  A
C2479      H2483   1.076       .  S
C2480      C2481   1.410   1_554  A
C2480      C2485   1.511       .  S
C2481      H2484   1.083       .  S
C2485      C2486   1.412       .  A
C2485      C2490   1.423       .  A
C2486      C2487   1.399       .  A
C2486      H2495   1.082   1_554  S
C2487      C2488   1.412       .  A
C2487      S2491   1.799       .  S
C2488      C2489   1.404       .  A
C2489      C2490   1.406       .  A
C2489      H2496   1.084       .  S
C2490      S2492   1.804       .  S
S2491      H2494   1.406       .  S
S2492      H2493   1.407       .  S
C2497      C2498   1.398       .  A
C2497      C2502   1.414       .  A
C2498      C2499   1.402       .  A
C2498      H2507   1.084       .  S
C2499      C2500   1.427       .  A
C2499      S2503   1.799   1_554  S
C2500      C2501   1.410       .  A
C2501      C2502   1.400       .  A
C2502      S2504   1.798       .  S
S2503      H2506   1.407       .  S
S2504      H2505   1.406       .  S
C2509      C2510   1.403       .  A
C2509      C2514   1.404       .  A
C2510      C2511   1.398       .  A
C2510      H2519   1.084       .  S
C2511      C2512   1.415       .  A
C2511      S2515   1.803       .  S
C2512      C2513   1.407       .  A
C2513      C2514   1.387       .  A
C2513      H2520   1.081       .  S
C2514      S2516   1.802       .  S
S2515      H2518   1.407       .  S
S2516      H2517   1.407       .  S
C2521      C2526   1.416       .  A
C2522      C2523   1.388       .  A
C2522      H2531   1.080       .  S
C2523      C2524   1.411       .  A
C2523      S2527   1.806       .  S
C2524      C2525   1.396       .  A
C2525      H2532   1.084       .  S
C2526      S2528   1.802       .  S
S2527      H2530   1.406       .  S
S2528      H2529   1.406       .  S
C2533      C2534   1.401       .  A
C2533      C2538   1.410       .  A
C2534      C2535   1.390       .  A
C2534      H2543   1.084       .  S
C2535      C2536   1.415       .  A
C2535      S2539   1.797       .  S
C2536      C2537   1.410       .  A
C2537      C2538   1.398       .  A
C2537      H2544   1.083       .  S
C2538      S2540   1.804       .  S
S2539      H2542   1.405       .  S
S2540      H2541   1.407       .  S
C2545      C2546   1.406       .  A
C2545      C2550   1.412       .  A
C2546      C2547   1.406       .  A
C2546      H2555   1.084       .  S
C2547      C2548   1.415       .  A
C2547      S2551   1.801       .  S
C2548      C2549   1.406       .  A
C2549      C2550   1.396       .  A
C2549      H2556   1.083       .  S
C2550      S2552   1.806       .  S
S2551      H2554   1.407       .  S
S2552      H2553   1.406       .  S
C2557      C2558   1.403       .  A
C2557      C2562   1.409       .  A
C2558      C2559   1.408       .  A
C2558      H2567   1.083       .  S
C2559      C2560   1.416       .  A
C2559      S2563   1.807   1_655  S
C2560      C2561   1.406       .  A
C2561      C2562   1.397       .  A
C2561      H2568   1.083       .  S
C2562      S2564   1.804       .  S
S2563      H2566   1.407   1_455  S
S2564      H2565   1.406       .  S
C2569      C2570   1.407       .  A
C2569      C2574   1.417       .  A
C2570      C2571   1.406       .  A
C2570      H2579   1.084       .  S
C2571      C2572   1.417       .  A
C2571      S2575   1.804   1_554  S
C2572      C2573   1.401       .  A
C2573      C2574   1.394       .  A
C2574      S2576   1.797       .  S
S2575      H2578   1.406       .  S
S2576      H2577   1.407       .  S
C2581      C2582   1.409       .  A
C2581      C2586   1.423       .  A
C2582      C2583   1.399       .  A
C2582      H2591   1.083       .  S
C2583      C2584   1.410       .  A
C2583      S2587   1.803       .  S
C2584      C2585   1.399       .  A
C2585      C2586   1.398       .  A
C2585      H2592   1.084       .  S
C2586      S2588   1.803   1_554  S
S2587      H2590   1.407   1_655  S
S2588      H2589   1.407   1_556  S
C2593      C2594   1.405       .  A
C2593      C2598   1.415       .  A
C2594      C2595   1.405       .  A
C2594      H2603   1.082       .  S
C2595      C2596   1.414       .  A
C2595      S2599   1.807       .  S
C2596      C2597   1.402       .  A
C2597      C2598   1.405       .  A
C2597      H2604   1.084       .  S
C2598      S2600   1.796       .  S
S2599      H2602   1.407       .  S
S2600      H2601   1.407       .  S
C2605      C2606   1.405       .  A
C2605      C2610   1.416       .  A
C2606      C2607   1.396       .  A
C2606      H2615   1.085       .  S
C2607      C2608   1.412       .  A
C2607      S2611   1.806       .  S
C2608      C2609   1.406       .  A
C2609      C2610   1.410       .  A
C2609      H2616   1.084       .  S
C2610      S2612   1.801       .  S
S2611      H2614   1.406       .  S
S2612      H2613   1.407       .  S
C2617      C2618   1.408       .  A
C2617      C2622   1.421       .  A
C2618      C2619   1.408       .  A
C2618      H2627   1.082       .  S
C2619      C2620   1.416       .  A
C2619      S2623   1.808       .  S
C2620      C2621   1.403       .  A
C2621      C2622   1.394       .  A
C2621      H2628   1.084       .  S
C2622      S2624   1.804       .  S
S2623      H2626   1.407       .  S
S2624      H2625   1.408       .  S
C2629      C2630   1.400       .  A
C2629      C2634   1.404       .  A
C2630      C2631   1.395       .  A
C2630      H2639   1.083       .  S
C2631      C2632   1.417       .  A
C2631      S2635   1.811       .  S
C2632      C2633   1.412       .  A
C2633      C2634   1.404       .  A
C2633      H2640   1.082       .  S
C2634      S2636   1.805       .  S
S2635      H2638   1.406       .  S
S2636      H2637   1.407       .  S
C2641      C2642   1.403       .  A
C2641      C2646   1.410       .  A
C2642      C2643   1.396       .  A
C2642      H2651   1.084       .  S
C2643      C2644   1.416       .  A
C2643      S2647   1.799       .  S
C2644      C2645   1.409       .  A
C2645      C2646   1.399       .  A
C2645      H2652   1.084       .  S
C2646      S2648   1.803       .  S
S2647      H2650   1.406       .  S
S2648      H2649   1.406       .  S
C2653      C2654   1.402       .  A
C2653      C2658   1.406       .  A
C2654      C2655   1.399       .  A
C2654      H2663   1.084       .  S
C2655      C2656   1.413       .  A
C2655      S2659   1.803       .  S
C2656      C2657   1.406       .  A
C2657      C2658   1.391       .  A
C2657      H2664   1.084       .  S
C2658      S2660   1.799       .  S
S2659      H2662   1.407       .  S
S2660      H2661   1.407       .  S
C2665      C2670   1.413   1_455  A
C2666      C2667   1.401       .  A
C2666      H2675   1.083       .  S
C2667      S2671   1.809       .  S
C2668      C2669   1.408   1_455  A
C2669      C2670   1.401       .  A
C2669      H2676   1.083       .  S
C2670      S2672   1.804       .  S
S2671      H2674   1.407       .  S
S2672      H2673   1.406       .  S
C2677      C2678   1.409       .  A
C2678      C2679   1.403       .  A
C2678      H2687   1.084       .  S
C2679      C2680   1.411       .  A
C2679      S2683   1.803       .  S
C2681      C2682   1.397       .  A
C2681      H2688   1.084       .  S
C2682      S2684   1.805       .  S
S2683      H2686   1.406       .  S
S2684      H2685   1.407       .  S
C2689      C2690   1.396   1_455  A
C2690      C2691   1.396   1_655  A
C2690      H2699   1.083       .  S
C2691      S2695   1.813   1_455  S
C2692      C2693   1.404       .  A
C2693      C2694   1.405       .  A
C2693      H2700   1.084       .  S
C2694      S2696   1.804       .  S
S2695      H2698   1.406       .  S
S2696      H2697   1.407       .  S
C2701      C2702   1.403       .  A
C2701      C2706   1.417       .  A
C2702      C2703   1.389       .  A
C2702      H2711   1.085       .  S
C2703      C2704   1.411       .  A
C2703      S2707   1.803       .  S
C2704      C2705   1.403       .  A
C2705      C2706   1.405       .  A
C2705      H2712   1.084       .  S
C2706      S2708   1.801       .  S
S2707      H2710   1.405       .  S
S2708      H2709   1.407       .  S
C2713      C2714   1.405       .  A
C2713      C2718   1.412       .  A
C2714      C2715   1.398       .  A
C2714      H2723   1.084       .  S
C2715      C2716   1.409       .  A
C2715      S2719   1.804       .  S
C2716      C2717   1.405       .  A
C2717      C2718   1.404       .  A
C2717      H2724   1.084       .  S
C2718      S2720   1.803       .  S
S2719      H2722   1.405       .  S
S2720      H2721   1.406       .  S
C2725      C2726   1.402       .  A
C2725      C2730   1.422       .  A
C2726      C2727   1.402       .  A
C2726      H2735   1.084       .  S
C2727      C2728   1.425       .  A
C2727      S2731   1.793       .  S
C2728      C2729   1.405       .  A
C2729      C2730   1.399       .  A
C2729      H2736   1.080       .  S
C2730      S2732   1.813       .  S
S2731      H2734   1.404       .  S
S2732      H2733   1.407       .  S
C2737      C2738   1.410       .  A
C2737      C2742   1.417       .  A
C2738      C2739   1.407       .  A
C2738      H2747   1.083       .  S
C2739      C2740   1.412       .  A
C2739      S2743   1.804       .  S
C2740      C2741   1.401       .  A
C2741      C2742   1.396       .  A
C2741      H2748   1.085       .  S
C2742      S2744   1.806       .  S
S2743      H2746   1.406       .  S
S2744      H2745   1.407       .  S
C2749      C2750   1.408       .  A
C2749      C2754   1.410       .  A
C2750      C2751   1.407       .  A
C2750      H2759   1.084       .  S
C2751      C2752   1.411       .  A
C2751      S2755   1.803       .  S
C2752      C2753   1.401       .  A
C2753      C2754   1.397       .  A
C2753      H2760   1.083       .  S
S2755      H2758   1.406       .  S
S2756      H2757   1.406       .  S
C2761      C2762   1.409       .  A
C2761      C2766   1.415       .  A
C2762      C2763   1.392       .  A
C2762      H2771   1.084       .  S
C2763      C2764   1.409       .  A
C2763      S2767   1.806       .  S
C2764      C2765   1.407       .  A
C2765      C2766   1.405       .  A
C2765      H2772   1.084       .  S
C2766      S2768   1.800       .  S
S2767      H2770   1.407       .  S
S2768      H2769   1.407       .  S
C2773      C2774   1.407       .  A
C2773      C2778   1.422       .  A
C2774      C2775   1.404       .  A
C2774      H2783   1.084       .  S
C2775      C2776   1.414       .  A
C2775      S2779   1.803       .  S
C2776      C2777   1.401       .  A
C2777      C2778   1.402       .  A
C2777      H2784   1.083       .  S
C2778      S2780   1.809       .  S
S2779      H2782   1.407       .  S
S2780      H2781   1.407       .  S
C2785      C2786   1.408       .  A
C2785      C2790   1.414       .  A
C2786      C2787   1.386       .  A
C2786      H2795   1.082       .  S
C2787      C2788   1.406       .  A
C2787      S2791   1.807       .  S
C2788      C2789   1.410       .  A
C2789      C2790   1.409       .  A
C2789      H2796   1.084       .  S
C2790      S2792   1.804       .  S
S2791      H2794   1.407       .  S
S2792      H2793   1.404       .  S
C2797      C2798   1.400       .  A
C2797      C2802   1.417       .  A
C2798      C2799   1.396       .  A
C2798      H2807   1.084       .  S
C2799      C2800   1.419       .  A
C2799      S2803   1.800       .  S
C2800      C2801   1.407       .  A
C2801      C2802   1.410       .  A
C2801      H2808   1.083       .  S
C2802      S2804   1.803       .  S
S2804      H2805   1.406       .  S
C2809      C2810   1.401       .  A
C2809      C2814   1.406       .  A
C2810      C2811   1.401       .  A
C2810      H2819   1.083       .  S
C2811      C2812   1.420       .  A
C2811      S2815   1.811       .  S
C2812      C2813   1.409       .  A
C2813      C2814   1.402       .  A
C2813      H2820   1.082       .  S
C2814      S2816   1.806       .  S
S2815      H2818   1.407       .  S
S2816      H2817   1.407       .  S
C2821      C2826   1.408       .  A
C2822      C2823   1.397       .  A
C2822      H2831   1.083       .  S
C2823      C2824   1.419       .  A
C2823      S2827   1.812       .  S
C2825      C2826   1.399       .  A
C2825      H2832   1.083       .  S
C2826      S2828   1.802       .  S
S2827      H2830   1.407       .  S
C2833      C2838   1.407       .  A
C2834      C2835   1.395       .  A
C2834      H2843   1.083       .  S
C2835      C2836   1.414       .  A
C2835      S2839   1.803       .  S
C2837      C2838   1.401       .  A
C2837      H2844   1.082       .  S
C2838      S2840   1.807       .  S
S2839      H2842   1.408       .  S
S2840      H2841   1.407       .  S
C2845      C2846   1.400       .  A
C2845      C2850   1.415       .  A
C2846      C2847   1.399       .  A
C2846      H2855   1.082   1_655  S
C2847      C2848   1.426       .  A
C2847      S2851   1.814       .  S
C2848      C2849   1.408       .  A
C2849      C2850   1.404       .  A
C2849      H2856   1.083       .  S
C2850      S2852   1.804       .  S
S2851      H2854   1.406       .  S
C2857      C2858   1.399       .  A
C2857      C2862   1.415       .  A
C2858      C2859   1.392       .  A
C2858      H2867   1.085       .  S
C2859      C2860   1.417       .  A
C2859      S2863   1.803       .  S
C2860      C2861   1.408       .  A
C2861      C2862   1.410       .  A
C2861      H2868   1.084       .  S
C2862      S2864   1.806       .  S
S2864      H2865   1.402       .  S
C2869      C2870   1.408       .  A
C2869      C2874   1.421       .  A
C2870      C2871   1.401       .  A
C2870      H2879   1.082       .  S
C2871      C2872   1.412       .  A
C2871      S2875   1.808       .  S
C2872      C2873   1.401       .  A
C2873      C2874   1.402       .  A
C2873      H2880   1.082       .  S
C2874      S2876   1.804       .  S
S2875      H2878   1.407       .  S
S2876      H2877   1.407       .  S
C2881      C2882   1.408       .  A
C2881      C2886   1.417       .  A
C2882      C2883   1.397       .  A
C2882      H2891   1.083       .  S
C2883      C2884   1.411       .  A
C2883      S2887   1.805       .  S
C2884      C2885   1.403       .  A
C2885      C2886   1.403       .  A
C2885      H2892   1.084       .  S
C2886      S2888   1.801       .  S
S2887      H2890   1.406       .  S
S2888      H2889   1.408       .  S
C2893      C2894   1.401       .  A
C2894      C2895   1.397       .  A
C2894      H2903   1.083       .  S
C2895      C2896   1.425       .  A
C2895      S2899   1.812       .  S
C2896      C2897   1.408       .  A
C2897      H2904   1.083       .  S
C2898      S2900   1.803       .  S
S2899      H2902   1.407       .  S
S2900      H2901   1.406       .  S
C2905      C2906   1.407       .  A
C2905      C2910   1.409       .  A
C2906      C2907   1.404       .  A
C2906      H2915   1.084       .  S
C2907      C2908   1.412       .  A
C2908      C2909   1.406       .  A
C2909      C2910   1.392       .  A
C2909      H2916   1.084       .  S
C2910      S2912   1.805       .  S
S2911      H2914   1.405   1_455  S
S2912      H2913   1.406       .  S
