geometry optimzed in LAMMPS
_audit_creation_date              2020-11-30 
_audit_creation_method            'lammps2cif' 
_symmetry_space_group_name_H-M    'P1' 
_symmetry_Int_Tables_number       1 
_symmetry_cell_setting            triclinic 
loop_ 
_symmetry_equiv_pos_as_xyz 
  x,y,z 
_cell_length_a                    45.39710080283296 
_cell_length_b                    53.86696090160733 
_cell_length_c                    36.62800099160539 
_cell_angle_alpha                 89.50817878691453 
_cell_angle_beta                  88.84452311627115 
_cell_angle_gamma                 89.97595776979057 
loop_ 
_atom_site_label 
_atom_site_type_symbol 
_atom_site_fract_x 
_atom_site_fract_y 
_atom_site_fract_z 
_atom_site_charge 
N1          N  0.11966517  0.28735427  0.25406419    -0.27100
N2          N  0.09420282  0.29802407  0.24707240    -0.34960
C3          C  0.07355250  0.28048402  0.24372416     0.01240
C4          C  0.08652246  0.25757348  0.24916232     0.07260
C5          C  0.11585983  0.26253000  0.25582489    -0.05840
H6          H  0.05066540  0.28414358  0.23794982     0.07930
H7          H  0.13320553  0.24917421  0.26053539     0.09130
Cu8        Cu  0.08863006  0.33596579  0.24336143     0.44170
Cu9        Cu  0.15751646  0.30839572  0.25805987     0.41990
Cu10       Cu  0.15103508  0.37716287  0.25286338     0.43880
N11         N  0.08502884  0.37412370  0.24538104    -0.34490
N12         N  0.10739483  0.38949220  0.24973365    -0.28740
C13         C  0.09680727  0.41288250  0.25150649    -0.04840
C14         C  0.06650668  0.41191381  0.24782137     0.07370
C15         C  0.05984016  0.38715436  0.24401716     0.01170
H16         H  0.11011553  0.42929625  0.25516966     0.08820
H17         H  0.03818922  0.37910923  0.24105573     0.07900
N18         N  0.19088616  0.35758520  0.25396671    -0.35940
N19         N  0.19246733  0.33305189  0.25583939    -0.28120
C20         C  0.22079873  0.32609837  0.25481593    -0.03360
C21         C  0.23818012  0.34706142  0.25226597     0.05250
C22         C  0.21856007  0.36680260  0.25185879     0.03340
H23         H  0.22811808  0.30699291  0.25552609     0.08450
H24         H  0.22394260  0.38632496  0.24961163     0.07280
N25         N  0.12147813  0.64657670  0.24039156    -0.27100
N26         N  0.09605474  0.63532776  0.23580658    -0.34960
C27         C  0.07446568  0.65221185  0.23604893     0.01240
C28         C  0.08675721  0.67538286  0.24108915     0.07260
C29         C  0.11678619  0.67121450  0.24359290    -0.05840
H30         H  0.05126530  0.64777122  0.23474579     0.07930
H31         H  0.13357999  0.68469198  0.24979722     0.09130
Cu32       Cu  0.09123748  0.59733757  0.23525508     0.44170
Cu33       Cu  0.15931817  0.62581239  0.24595336     0.41990
Cu34       Cu  0.15272015  0.55649421  0.25119417     0.43880
N35         N  0.08715678  0.55946616  0.24157824    -0.34490
N36         N  0.10918618  0.54417248  0.24852314    -0.28740
C37         C  0.09829651  0.52096905  0.25248388    -0.04840
C38         C  0.06814942  0.52202601  0.24746534     0.07370
C39         C  0.06189808  0.54659310  0.24058574     0.01170
H40         H  0.11132573  0.50461301  0.25814576     0.08820
H41         H  0.04048339  0.55462040  0.23557903     0.07900
N42         N  0.19226619  0.57636652  0.25091801    -0.35940
N43         N  0.19377566  0.60091921  0.24937348    -0.28120
C44         C  0.22201791  0.60793135  0.24980211    -0.03360
C45         C  0.23941727  0.58701266  0.25160851     0.05250
C46         C  0.21993858  0.56720579  0.25222448     0.03340
H47         H  0.22925131  0.62705561  0.24871495     0.08450
H48         H  0.22540208  0.54767809  0.25370155     0.07280
N49         N  0.38820275  0.64829468  0.25651056    -0.27100
N50         N  0.41501775  0.63911168  0.25237189    -0.34960
C51         C  0.43430837  0.65800875  0.25025331     0.01240
C52         C  0.41874743  0.68000162  0.25353336     0.07260
C53         C  0.38956510  0.67324278  0.25754645    -0.05840
H54         H  0.45789040  0.65594077  0.24658058     0.07930
H55         H  0.37073040  0.68545753  0.26014091     0.09130
Cu56       Cu  0.42309196  0.60110597  0.25010797     0.44170
Cu57       Cu  0.35169652  0.62581965  0.25809516     0.41990
Cu58       Cu  0.35949381  0.55843345  0.25212343     0.43880
N59         N  0.42618409  0.56251909  0.25055483    -0.34490
N60         N  0.40348075  0.54705207  0.25132511    -0.28740
C61         C  0.41371060  0.52354268  0.25167525    -0.04840
C62         C  0.44415414  0.52437400  0.25121951     0.07370
C63         C  0.45131346  0.54926739  0.25043364     0.01170
H64         H  0.40000855  0.50710965  0.25218902     0.08820
H65         H  0.47321497  0.55720181  0.24978698     0.07900
N66         N  0.31905752  0.57688977  0.25341755    -0.35940
N67         N  0.31715211  0.60133538  0.25552957    -0.28120
C68         C  0.28884521  0.60814439  0.25524206    -0.03360
C69         C  0.27175057  0.58711543  0.25297921     0.05250
C70         C  0.29152678  0.56747651  0.25190483     0.03340
H71         H  0.28137729  0.62719087  0.25653853     0.08450
H72         H  0.28635896  0.54794132  0.24986028     0.07280
O73         O  0.03712080  0.49338096  0.27918264    -0.72760
O74         O  0.47319021  0.44152244  0.28088756    -0.73740
O75         O  0.03594704  0.44074081  0.27924075    -0.62360
O76         O  0.47439871  0.49469908  0.28080739    -0.70770
O77         O  0.47407588  0.49496070  0.22015208    -0.70320
O78         O  0.03530869  0.44090123  0.21859422    -0.61570
O79         O  0.47266293  0.44204158  0.22024213    -0.74080
O80         O  0.03643642  0.49384116  0.21852527    -0.72860
Cu81       Cu  0.00511002  0.46756844  0.28217517     1.04560
Cu82       Cu  0.00461477  0.46793334  0.21727165     1.04330
C83         C  0.04662350  0.50182728  0.24847267     0.93440
C84         C  0.46315350  0.43346182  0.25087371     0.92580
C85         C  0.04522569  0.43236704  0.24859006     0.84720
C86         C  0.46491677  0.50351289  0.25073771     0.91000
N87         N  0.38952915  0.28801078  0.24493665    -0.27100
N88         N  0.41527303  0.29873155  0.24973796    -0.34960
C89         C  0.43606851  0.28120024  0.25248785     0.01240
C90         C  0.42286268  0.25826497  0.24891484     0.07260
C91         C  0.39325567  0.26317604  0.24403830    -0.05830
H92         H  0.45914254  0.28486215  0.25699328     0.07930
H93         H  0.37568774  0.24978604  0.24140641     0.09130
Cu94       Cu  0.42073746  0.33670783  0.25253302     0.44170
Cu95       Cu  0.35147673  0.30896733  0.24301013     0.41990
Cu96       Cu  0.35755314  0.37776864  0.24803239     0.43880
N97         N  0.42383458  0.37496274  0.25215811    -0.34490
N98         N  0.40117436  0.39033356  0.24998915    -0.28740
C99         C  0.41147798  0.41385744  0.24939122    -0.04840
C100        C  0.44191533  0.41295570  0.25151637     0.07370
C101        C  0.44892949  0.38810596  0.25315021     0.01170
H102        H  0.39789440  0.43030601  0.24748478     0.08820
H103        H  0.47075187  0.38009986  0.25451799     0.07900
N104        N  0.31782335  0.35796807  0.24753355    -0.35940
N105        N  0.31642183  0.33344213  0.24583133    -0.28120
C106        C  0.28815693  0.32632466  0.24709117    -0.03360
C107        C  0.27061278  0.34716638  0.24960526     0.05250
C108        C  0.29007354  0.36701473  0.24975280     0.03340
H109        H  0.28099531  0.30718840  0.24644081     0.08450
H110        H  0.28453066  0.38649269  0.25181559     0.07280
C111        C  0.00399129  0.17487066  0.25121477    -0.02300
C112        C  0.00383824  0.75813442  0.25316171    -0.02300
N113        N  0.01088600  0.10814919  0.44548151    -0.27100
N114        N  0.01459975  0.08691090  0.42813868    -0.34960
C115        C  0.01697577  0.09138105  0.39201661     0.01240
C116        C  0.01435164  0.11662507  0.38628777     0.07260
C117        C  0.01025516  0.12670039  0.42067862    -0.05840
H118        H  0.01863309  0.07717872  0.37136949     0.07930
H119        H  0.00627367  0.14599990  0.42707839     0.09130
Cu120      Cu  0.01224411  0.05260423  0.45358910     0.44170
Cu121      Cu  0.00557462  0.11061558  0.00197551     0.41990
Cu122      Cu  0.99742950  0.05194566  0.05082120     0.43880
N123        N  0.00653715  0.02046076  0.48404091    -0.34490
N124        N  0.00159725  0.02013947  0.01972939    -0.28740
C125        C  0.99965295  0.99642942  0.03130356    -0.04840
C126        C  0.00322833  0.98119401  0.00134489     0.07370
C127        C  0.00746991  0.99701456  0.47183378     0.01170
H128        H  0.99568867  0.99075336  0.05937724     0.08820
H129        H  0.01126606  0.99191232  0.44362487     0.07900
N130        N  0.99673139  0.08618650  0.07613487    -0.35940
N131        N  0.00081868  0.10749856  0.05853769    -0.28120
C132        C  0.00213899  0.12586047  0.08311157    -0.03360
C133        C  0.99830804  0.11562940  0.11769175     0.05250
C134        C  0.99481905  0.09047372  0.11226140     0.03340
H135        H  0.00614838  0.14517757  0.07637330     0.08450
H136        H  0.99259362  0.07619507  0.13308455     0.07280
N137        N  0.00639245  0.82667176  0.05646454    -0.27100
N138        N  0.00759455  0.84787461  0.07408043    -0.34960
C139        C  0.00962105  0.84321075  0.10997838     0.01240
C140        C  0.00943729  0.81763529  0.11564992     0.07260
C141        C  0.00734179  0.80787544  0.08074433    -0.05840
H142        H  0.01134869  0.85774060  0.12987004     0.07930
H143        H  0.00632754  0.78853703  0.07324863     0.09130
Cu144      Cu  0.00577411  0.88229673  0.04889066     0.44170
Cu145      Cu  0.00398831  0.82458891  0.00029554     0.41990
Cu146      Cu  0.99856707  0.88337928  0.45097015     0.43880
N147        N  0.00331312  0.91461714  0.01830051    -0.34490
N148        N  0.00122956  0.91506637  0.48235835    -0.28740
C149        C  0.00100393  0.93881023  0.47074825    -0.04840
C150        C  0.00274274  0.95395259  0.00091965     0.07370
C151        C  0.00411260  0.93803519  0.03060758     0.01170
H152        H  0.99948215  0.94457679  0.44248328     0.08820
H153        H  0.00592507  0.94304629  0.05901327     0.07900
N154        N  0.99832362  0.84896869  0.42620718    -0.35940
N155        N  0.00138976  0.82775123  0.44417841    -0.28120
C156        C  0.00268484  0.80908269  0.42017459    -0.03360
C157        C  0.99982966  0.81897184  0.38553496     0.05250
C158        C  0.99706949  0.84429165  0.39024293     0.03340
H159        H  0.00567294  0.78973784  0.42739813     0.08450
H160        H  0.99546697  0.85834159  0.36909351     0.07280
C161        C  0.00196138  0.80527312  0.35106151    -0.05280
C162        C  0.02543434  0.78895083  0.34557646    -0.32710
C163        C  0.02766064  0.77436577  0.31427185     0.36540
C164        C  0.00516402  0.77523196  0.28750448    -0.05640
C165        C  0.48196722  0.79257053  0.29339338    -0.32610
C166        C  0.48056554  0.80763870  0.32428252     0.36450
H167        H  0.04250649  0.78759300  0.36577774     0.16820
O168        O  0.05259277  0.76023210  0.31029797    -0.60100
H169        H  0.46438381  0.79402272  0.27390568     0.16830
O170        O  0.45717740  0.82347417  0.32910890    -0.60200
H171        H  0.46267186  0.83872895  0.31523854     0.43830
H172        H  0.05042970  0.74652489  0.32842206     0.43780
C173        C  0.01083088  0.80341594  0.15079750    -0.05280
C174        C  0.01539052  0.77769767  0.15011943    -0.32710
C175        C  0.01510176  0.76328561  0.18218400     0.36540
C176        C  0.00889840  0.77423889  0.21700276    -0.05640
C177        C  0.50817255  0.80057458  0.21717976    -0.32610
C178        C  0.50792399  0.81482196  0.18510447     0.36450
H179        H  0.01918168  0.76829162  0.12449287     0.16820
O180        O  0.01969393  0.73814502  0.17871607    -0.60100
H181        H  0.50765108  0.81114704  0.24187328     0.16830
O182        O  0.50363031  0.83989967  0.18815972    -0.60200
H183        H  0.52308808  0.84676480  0.19465409     0.43830
H184        H  0.03945821  0.73620633  0.16701030     0.43780
C185        C  0.00464356  0.15759505  0.28564835    -0.05280
C186        C  0.02947071  0.14219859  0.29096112    -0.32710
C187        C  0.03295651  0.12862802  0.32346661     0.36540
C188        C  0.01101909  0.12947743  0.35097403    -0.05640
C189        C  0.48488617  0.14216382  0.34438708    -0.32610
C190        C  0.48096490  0.15536377  0.31179829     0.36450
H191        H  0.04705411  0.14181701  0.27053114     0.16820
O192        O  0.05823434  0.11519227  0.32850953    -0.60100
H193        H  0.46697236  0.14133747  0.36438992     0.16830
O194        O  0.45319683  0.16415349  0.30486700    -0.60200
H195        H  0.44801616  0.17559243  0.32509925     0.43830
H196        H  0.07201302  0.12679089  0.34029344     0.43780
C197        C  0.00089861  0.12850746  0.15286765    -0.05280
C198        C  0.47870872  0.12639001  0.17983047    -0.32710
C199        C  0.47978965  0.14049689  0.21195225     0.36540
C200        C  0.00347149  0.15721081  0.21756628    -0.05640
C201        C  0.02742870  0.15625030  0.19214564    -0.32610
C202        C  0.02580493  0.14289324  0.15980667     0.36450
H203        H  0.45997740  0.11439067  0.17547411     0.16820
O204        O  0.45760262  0.13785050  0.23768841    -0.60100
H205        H  0.04774276  0.16610517  0.19652760     0.16830
O206        O  0.04892764  0.14394326  0.13513580    -0.60200
H207        H  0.06182468  0.12977794  0.14162468     0.43830
H208        H  0.43934073  0.14358243  0.22581882     0.43780
C209        C  0.43797873  0.23419717  0.25247143    -0.05280
C210        C  0.45722201  0.23106620  0.28130718    -0.32710
C211        C  0.47678302  0.21115789  0.28218244     0.36540
C212        C  0.47762356  0.19341004  0.25352059    -0.05640
C213        C  0.45645278  0.19590541  0.22580955    -0.32610
C214        C  0.43657058  0.21589445  0.22550774     0.36450
H215        H  0.45801989  0.24481958  0.30270258     0.16820
O216        O  0.99559545  0.20938548  0.31101381    -0.60100
H217        H  0.45646978  0.18374665  0.20257695     0.16830
O218        O  0.41788979  0.21863162  0.19680478    -0.60200
H219        H  0.39999703  0.20908517  0.20401331     0.43830
H220        H  0.00823322  0.22440420  0.30956510     0.43780
C221        C  0.43134109  0.70508800  0.25166047    -0.05280
C222        C  0.43477131  0.71878196  0.28336083    -0.32710
C223        C  0.45509577  0.73849812  0.28424031     0.36540
C224        C  0.47255189  0.74484274  0.25214155    -0.05640
C225        C  0.46267837  0.73427985  0.21920735    -0.32610
C226        C  0.44357442  0.71404151  0.21898598     0.36450
H227        H  0.42403493  0.71261333  0.30853302     0.16820
O228        O  0.45947793  0.74935436  0.31752261    -0.60100
H229        H  0.46970095  0.74075065  0.19286014     0.16830
O230        O  0.43823805  0.70228221  0.18670705    -0.60200
H231        H  0.41992888  0.70996533  0.17754164     0.43830
H232        H  0.46509751  0.73600379  0.33484165     0.43780
C233        C  0.02821822  0.73747541  0.25506576    -0.05280
C234        C  0.05652997  0.74112490  0.23840333    -0.32710
C235        C  0.07682782  0.72152323  0.23477121     0.36540
C236        C  0.06969223  0.69803990  0.24919250    -0.05640
C237        C  0.04438048  0.69547276  0.27092064    -0.32610
C238        C  0.02420781  0.71476668  0.27476461     0.36450
H239        H  0.06256135  0.75895461  0.22665265     0.16820
O240        O  0.10250279  0.72513532  0.21511842    -0.60100
H241        H  0.03995401  0.67808844  0.28513398     0.16830
O242        O  0.00207865  0.71150323  0.30012998    -0.60200
H243        H  0.99081246  0.69676144  0.29222368     0.43830
H244        H  0.11653046  0.73204406  0.23277977     0.43780
C245        C  0.03088907  0.19311382  0.24790019    -0.05280
C246        C  0.05216527  0.19580328  0.27546654    -0.32710
C247        C  0.07232973  0.21559135  0.27472341     0.36540
C248        C  0.07125805  0.23351670  0.24675382    -0.05640
C249        C  0.05204965  0.23013609  0.21803166    -0.32610
C250        C  0.03212458  0.21047176  0.21824769     0.36450
H251        H  0.05203518  0.18413533  0.29950456     0.16820
O252        O  0.09089832  0.21858732  0.30341572    -0.60100
H253        H  0.05145281  0.24360761  0.19589579     0.16830
O254        O  0.01307615  0.20879072  0.18969114    -0.60200
H255        H  0.00068556  0.22396143  0.19074306     0.43830
H256        H  0.10862665  0.20865104  0.29701734     0.43780
N257        N  0.11966517  0.28735426  0.75406425    -0.27100
N258        N  0.09420281  0.29802407  0.74707246    -0.34960
C259        C  0.07355250  0.28048401  0.74372422     0.01240
C260        C  0.08652246  0.25757347  0.74916237     0.07260
C261        C  0.11585983  0.26252999  0.75582493    -0.05840
H262        H  0.05066539  0.28414358  0.73794989     0.07930
H263        H  0.13320553  0.24917420  0.76053542     0.09130
Cu264      Cu  0.08863006  0.33596578  0.74336149     0.44170
Cu265      Cu  0.15751646  0.30839571  0.75805991     0.41990
Cu266      Cu  0.15103508  0.37716287  0.75286335     0.43880
N267        N  0.08502883  0.37412369  0.74538106    -0.34490
N268        N  0.10739483  0.38949220  0.74973363    -0.28740
C269        C  0.09680727  0.41288249  0.75150644    -0.04840
C270        C  0.06650668  0.41191381  0.74782135     0.07370
C271        C  0.05984016  0.38715435  0.74401718     0.01170
H272        H  0.11011554  0.42929625  0.75516957     0.08820
H273        H  0.03818922  0.37910922  0.74105577     0.07900
N274        N  0.19088616  0.35758520  0.75396670    -0.35940
N275        N  0.19246733  0.33305188  0.75583940    -0.28120
C276        C  0.22079873  0.32609836  0.75481595    -0.03360
C277        C  0.23818012  0.34706142  0.75226597     0.05250
C278        C  0.21856007  0.36680260  0.75185877     0.03340
H279        H  0.22811808  0.30699291  0.75552612     0.08450
H280        H  0.22394260  0.38632495  0.74961158     0.07280
N281        N  0.12147813  0.64657669  0.74039155    -0.27100
N282        N  0.09605474  0.63532776  0.73580656    -0.34960
C283        C  0.07446567  0.65221184  0.73604891     0.01240
C284        C  0.08675720  0.67538286  0.74108914     0.07260
C285        C  0.11678619  0.67121450  0.74359289    -0.05840
H286        H  0.05126530  0.64777121  0.73474576     0.07930
H287        H  0.13357998  0.68469197  0.74979722     0.09130
Cu288      Cu  0.09123749  0.59733756  0.73525506     0.44170
Cu289      Cu  0.15931817  0.62581239  0.74595334     0.41990
Cu290      Cu  0.15272015  0.55649420  0.75119413     0.43880
N291        N  0.08715679  0.55946615  0.74157821    -0.34490
N292        N  0.10918618  0.54417247  0.74852311    -0.28740
C293        C  0.09829651  0.52096904  0.75248384    -0.04840
C294        C  0.06814942  0.52202600  0.74746531     0.07370
C295        C  0.06189808  0.54659309  0.74058571     0.01170
H296        H  0.11132574  0.50461301  0.75814572     0.08820
H297        H  0.04048339  0.55462039  0.73557901     0.07900
N298        N  0.19226619  0.57636652  0.75091799    -0.35940
N299        N  0.19377566  0.60091921  0.74937346    -0.28120
C300        C  0.22201791  0.60793135  0.74980210    -0.03360
C301        C  0.23941726  0.58701266  0.75160851     0.05250
C302        C  0.21993858  0.56720579  0.75222446     0.03340
H303        H  0.22925131  0.62705560  0.74871495     0.08450
H304        H  0.22540208  0.54767809  0.75370153     0.07280
N305        N  0.38820275  0.64829468  0.75651058    -0.27100
N306        N  0.41501774  0.63911168  0.75237183    -0.34960
C307        C  0.43430835  0.65800875  0.75025323     0.01240
C308        C  0.41874742  0.68000162  0.75353332     0.07260
C309        C  0.38956510  0.67324277  0.75754648    -0.05840
H310        H  0.45789038  0.65594077  0.74658044     0.07930
H311        H  0.37073040  0.68545752  0.76014100     0.09130
Cu312      Cu  0.42309195  0.60110597  0.75010788     0.44170
Cu313      Cu  0.35169652  0.62581964  0.75809523     0.41990
Cu314      Cu  0.35949381  0.55843344  0.75212343     0.43880
N315        N  0.42618408  0.56251909  0.75055475    -0.34490
N316        N  0.40348075  0.54705207  0.75132506    -0.28740
C317        C  0.41371060  0.52354267  0.75167521    -0.04840
C318        C  0.44415414  0.52437400  0.75121944     0.07370
C319        C  0.45131345  0.54926739  0.75043354     0.01170
H320        H  0.40000855  0.50710964  0.75218902     0.08820
H321        H  0.47321496  0.55720181  0.74978686     0.07900
N322        N  0.31905751  0.57688977  0.75341757    -0.35940
N323        N  0.31715211  0.60133537  0.75552962    -0.28120
C324        C  0.28884521  0.60814438  0.75524210    -0.03360
C325        C  0.27175057  0.58711543  0.75297923     0.05250
C326        C  0.29152678  0.56747651  0.75190483     0.03340
H327        H  0.28137728  0.62719087  0.75653859     0.08450
H328        H  0.28635896  0.54794132  0.74986025     0.07280
O329        O  0.03712079  0.49338096  0.77918260    -0.72760
O330        O  0.47319020  0.44152244  0.78088750    -0.73740
O331        O  0.03594703  0.44074080  0.77924072    -0.62360
O332        O  0.47439870  0.49469907  0.78080733    -0.70770
O333        O  0.47407589  0.49496070  0.72015202    -0.70320
O334        O  0.03530870  0.44090122  0.71859418    -0.61570
O335        O  0.47266294  0.44204158  0.72024207    -0.74080
O336        O  0.03643642  0.49384115  0.71852523    -0.72860
Cu337      Cu  0.00511002  0.46756844  0.78217512     1.04560
Cu338      Cu  0.00461478  0.46793334  0.71727160     1.04330
C339        C  0.04662350  0.50182727  0.74847264     0.93440
C340        C  0.46315350  0.43346182  0.75087364     0.92580
C341        C  0.04522569  0.43236703  0.74859002     0.84720
C342        C  0.46491677  0.50351289  0.75073764     0.91000
N343        N  0.38952915  0.28801077  0.74493661    -0.27100
N344        N  0.41527303  0.29873155  0.74973790    -0.34960
C345        C  0.43606852  0.28120024  0.75248779     0.01240
C346        C  0.42286268  0.25826497  0.74891480     0.07260
C347        C  0.39325566  0.26317603  0.74403827    -0.05830
H348        H  0.45914255  0.28486215  0.75699320     0.07930
H349        H  0.37568774  0.24978604  0.74140641     0.09130
Cu350      Cu  0.42073746  0.33670783  0.75253293     0.44170
Cu351      Cu  0.35147673  0.30896732  0.74301010     0.41990
Cu352      Cu  0.35755314  0.37776864  0.74803235     0.43880
N353        N  0.42383458  0.37496274  0.75215802    -0.34490
N354        N  0.40117436  0.39033356  0.74998908    -0.28740
C355        C  0.41147798  0.41385744  0.74939116    -0.04840
C356        C  0.44191533  0.41295570  0.75151629     0.07370
C357        C  0.44892949  0.38810596  0.75315012     0.01170
H358        H  0.39789440  0.43030601  0.74748474     0.08820
H359        H  0.47075187  0.38009986  0.75451789     0.07900
N360        N  0.31782334  0.35796807  0.74753352    -0.35940
N361        N  0.31642182  0.33344212  0.74583131    -0.28120
C362        C  0.28815693  0.32632465  0.74709115    -0.03360
C363        C  0.27061278  0.34716638  0.74960524     0.05250
C364        C  0.29007354  0.36701473  0.74975278     0.03340
H365        H  0.28099531  0.30718840  0.74644080     0.08450
H366        H  0.28453066  0.38649268  0.75181556     0.07280
C367        C  0.00399129  0.17487066  0.75121477    -0.02300
C368        C  0.00383824  0.75813441  0.75316170    -0.02300
N369        N  0.01088597  0.10814918  0.94548151    -0.27100
N370        N  0.01459972  0.08691089  0.92813868    -0.34960
C371        C  0.01697573  0.09138105  0.89201661     0.01240
C372        C  0.01435162  0.11662506  0.88628778     0.07260
C373        C  0.01025513  0.12670038  0.92067863    -0.05840
H374        H  0.01863306  0.07717871  0.87136949     0.07930
H375        H  0.00627365  0.14599990  0.92707839     0.09130
Cu376      Cu  0.01224408  0.05260423  0.95358910     0.44170
Cu377      Cu  0.00557464  0.11061558  0.50197551     0.41990
Cu378      Cu  0.99742952  0.05194567  0.55082120     0.43880
N379        N  0.00653711  0.02046076  0.98404090    -0.34490
N380        N  0.00159728  0.02013947  0.51972939    -0.28740
C381        C  0.99965298  0.99642943  0.53130356    -0.04840
C382        C  0.00322837  0.98119402  0.50134489     0.07370
C383        C  0.00746987  0.99701456  0.97183378     0.01170
H384        H  0.99568870  0.99075336  0.55937724     0.08820
H385        H  0.01126602  0.99191232  0.94362486     0.07900
N386        N  0.99673140  0.08618651  0.57613487    -0.35940
N387        N  0.00081869  0.10749856  0.55853768    -0.28120
C388        C  0.00213900  0.12586048  0.58311157    -0.03360
C389        C  0.99830805  0.11562941  0.61769175     0.05250
C390        C  0.99481906  0.09047373  0.61226139     0.03340
H391        H  0.00614839  0.14517757  0.57637330     0.08450
H392        H  0.99259364  0.07619508  0.63308454     0.07280
N393        N  0.00639246  0.82667177  0.55646454    -0.27100
N394        N  0.00759456  0.84787462  0.57408043    -0.34960
C395        C  0.00962106  0.84321075  0.60997838     0.01240
C396        C  0.00943730  0.81763529  0.61564992     0.07260
C397        C  0.00734180  0.80787544  0.58074433    -0.05840
H398        H  0.01134871  0.85774060  0.62987005     0.07930
H399        H  0.00632754  0.78853704  0.57324863     0.09130
Cu400      Cu  0.00577413  0.88229674  0.54889067     0.44170
Cu401      Cu  0.00398832  0.82458891  0.50029554     0.41990
Cu402      Cu  0.99856705  0.88337928  0.95097014     0.43880
N403        N  0.00331315  0.91461714  0.51830051    -0.34490
N404        N  0.00122953  0.91506636  0.98235834    -0.28740
C405        C  0.00100390  0.93881023  0.97074824    -0.04840
C406        C  0.00274277  0.95395260  0.50091966     0.07370
C407        C  0.00411263  0.93803519  0.53060759     0.01170
H408        H  0.99948212  0.94457678  0.94248328     0.08820
H409        H  0.00592510  0.94304630  0.55901328     0.07900
N410        N  0.99832361  0.84896868  0.92620718    -0.35940
N411        N  0.00138975  0.82775122  0.94417840    -0.28120
C412        C  0.00268483  0.80908268  0.92017459    -0.03360
C413        C  0.99982964  0.81897183  0.88553496     0.05250
C414        C  0.99706948  0.84429164  0.89024293     0.03340
H415        H  0.00567293  0.78973783  0.92739813     0.08450
H416        H  0.99546695  0.85834158  0.86909350     0.07280
C417        C  0.00196137  0.80527311  0.85106151    -0.05280
C418        C  0.02543432  0.78895081  0.84557647    -0.32710
C419        C  0.02766062  0.77436574  0.81427186     0.36540
C420        C  0.00516401  0.77523195  0.78750448    -0.05640
C421        C  0.48196721  0.79257053  0.79339337    -0.32610
C422        C  0.48056554  0.80763869  0.82428251     0.36450
H423        H  0.04250646  0.78759297  0.86577776     0.16820
O424        O  0.05259274  0.76023207  0.81029799    -0.60100
H425        H  0.46438381  0.79402272  0.77390567     0.16830
O426        O  0.45717740  0.82347417  0.82910887    -0.60200
H427        H  0.46267187  0.83872895  0.81523851     0.43830
H428        H  0.05042965  0.74652485  0.82842208     0.43780
C429        C  0.01083089  0.80341594  0.65079750    -0.05280
C430        C  0.01539054  0.77769767  0.65011942    -0.32710
C431        C  0.01510178  0.76328561  0.68218400     0.36540
C432        C  0.00889840  0.77423888  0.71700276    -0.05640
C433        C  0.50817255  0.80057458  0.71717976    -0.32610
C434        C  0.50792400  0.81482196  0.68510447     0.36450
H435        H  0.01918170  0.76829162  0.62449286     0.16820
O436        O  0.01969395  0.73814502  0.67871606    -0.60100
H437        H  0.50765108  0.81114703  0.74187328     0.16830
O438        O  0.50363031  0.83989967  0.68815972    -0.60200
H439        H  0.52308808  0.84676480  0.69465411     0.43830
H440        H  0.03945824  0.73620634  0.66701030     0.43780
C441        C  0.00464355  0.15759505  0.78564836    -0.05280
C442        C  0.02947069  0.14219858  0.79096112    -0.32710
C443        C  0.03295648  0.12862801  0.82346661     0.36540
C444        C  0.01101906  0.12947743  0.85097403    -0.05640
C445        C  0.48488616  0.14216382  0.84438708    -0.32610
C446        C  0.48096489  0.15536378  0.81179829     0.36450
H447        H  0.04705409  0.14181700  0.77053115     0.16820
O448        O  0.05823431  0.11519226  0.82850953    -0.60100
H449        H  0.46697234  0.14133748  0.86438992     0.16830
O450        O  0.45319682  0.16415350  0.80486700    -0.60200
H451        H  0.44801615  0.17559244  0.82509925     0.43830
H452        H  0.07201299  0.12679087  0.84029344     0.43780
C453        C  0.00089862  0.12850747  0.65286765    -0.05280
C454        C  0.47870873  0.12639001  0.67983047    -0.32710
C455        C  0.47978966  0.14049689  0.71195225     0.36540
C456        C  0.00347149  0.15721081  0.71756628    -0.05640
C457        C  0.02742870  0.15625030  0.69214564    -0.32610
C458        C  0.02580494  0.14289324  0.65980667     0.36450
H459        H  0.45997741  0.11439067  0.67547410     0.16820
O460        O  0.45760263  0.13785050  0.73768841    -0.60100
H461        H  0.04774276  0.16610518  0.69652760     0.16830
O462        O  0.04892764  0.14394327  0.63513581    -0.60200
H463        H  0.06182469  0.12977795  0.64162468     0.43830
H464        H  0.43934074  0.14358242  0.72581882     0.43780
C465        C  0.43797873  0.23419717  0.75247141    -0.05280
C466        C  0.45722201  0.23106621  0.78130716    -0.32710
C467        C  0.47678302  0.21115789  0.78218243     0.36540
C468        C  0.47762356  0.19341004  0.75352058    -0.05640
C469        C  0.45645279  0.19590541  0.72580953    -0.32610
C470        C  0.43657059  0.21589445  0.72550772     0.36450
H471        H  0.45801988  0.24481958  0.80270255     0.16820
O472        O  0.99559543  0.20938549  0.81101381    -0.60100
H473        H  0.45646979  0.18374664  0.70257694     0.16830
O474        O  0.41788980  0.21863162  0.69680475    -0.60200
H475        H  0.39999704  0.20908517  0.70401328     0.43830
H476        H  0.00823320  0.22440421  0.80956509     0.43780
C477        C  0.43134108  0.70508800  0.75166043    -0.05280
C478        C  0.43477129  0.71878197  0.78336079    -0.32710
C479        C  0.45509575  0.73849812  0.78424028     0.36540
C480        C  0.47255188  0.74484274  0.75214153    -0.05640
C481        C  0.46267838  0.73427983  0.71920732    -0.32610
C482        C  0.44357443  0.71404150  0.71898595     0.36450
H483        H  0.42403490  0.71261334  0.80853297     0.16820
O484        O  0.45947790  0.74935436  0.81752258    -0.60100
H485        H  0.46970097  0.74075063  0.69286012     0.16830
O486        O  0.43823807  0.70228220  0.68670702    -0.60200
H487        H  0.41992890  0.70996530  0.67754159     0.43830
H488        H  0.46509752  0.73600379  0.83484160     0.43780
C489        C  0.02821821  0.73747540  0.75506575    -0.05280
C490        C  0.05652997  0.74112490  0.73840335    -0.32710
C491        C  0.07682782  0.72152323  0.73477123     0.36540
C492        C  0.06969222  0.69803989  0.74919249    -0.05640
C493        C  0.04438046  0.69547274  0.77092061    -0.32610
C494        C  0.02420779  0.71476666  0.77476458     0.36450
H495        H  0.06256135  0.75895461  0.72665268     0.16820
O496        O  0.10250280  0.72513532  0.71511846    -0.60100
H497        H  0.03995398  0.67808842  0.78513393     0.16830
O498        O  0.00207861  0.71150320  0.80012992    -0.60200
H499        H  0.99081242  0.69676142  0.79222358     0.43830
H500        H  0.11653045  0.73204406  0.73277982     0.43780
C501        C  0.03088907  0.19311382  0.74790021    -0.05280
C502        C  0.05216527  0.19580327  0.77546656    -0.32710
C503        C  0.07232973  0.21559134  0.77472344     0.36540
C504        C  0.07125806  0.23351670  0.74675386    -0.05640
C505        C  0.05204966  0.23013609  0.71803169    -0.32610
C506        C  0.03212458  0.21047176  0.71824771     0.36450
H507        H  0.05203516  0.18413532  0.79950458     0.16820
O508        O  0.09089831  0.21858731  0.80341577    -0.60100
H509        H  0.05145283  0.24360761  0.69589583     0.16830
O510        O  0.01307616  0.20879073  0.68969115    -0.60200
H511        H  0.00068557  0.22396144  0.69074308     0.43830
H512        H  0.10862664  0.20865103  0.79701738     0.43780
N513        N  0.61966517  0.28735426  0.25406419    -0.27100
N514        N  0.59420282  0.29802407  0.24707239    -0.34960
C515        C  0.57355250  0.28048402  0.24372415     0.01240
C516        C  0.58652246  0.25757348  0.24916232     0.07260
C517        C  0.61585983  0.26252999  0.25582488    -0.05840
H518        H  0.55066540  0.28414358  0.23794982     0.07930
H519        H  0.63320553  0.24917420  0.26053539     0.09130
Cu520      Cu  0.58863006  0.33596579  0.24336143     0.44170
Cu521      Cu  0.65751646  0.30839571  0.25805987     0.41990
Cu522      Cu  0.65103509  0.37716287  0.25286338     0.43880
N523        N  0.58502884  0.37412370  0.24538104    -0.34490
N524        N  0.60739483  0.38949220  0.24973365    -0.28740
C525        C  0.59680727  0.41288249  0.25150650    -0.04840
C526        C  0.56650668  0.41191381  0.24782137     0.07370
C527        C  0.55984016  0.38715436  0.24401716     0.01170
H528        H  0.61011554  0.42929625  0.25516966     0.08820
H529        H  0.53818923  0.37910923  0.24105573     0.07900
N530        N  0.69088616  0.35758520  0.25396671    -0.35940
N531        N  0.69246733  0.33305188  0.25583939    -0.28120
C532        C  0.72079873  0.32609836  0.25481593    -0.03360
C533        C  0.73818012  0.34706142  0.25226597     0.05250
C534        C  0.71856008  0.36680260  0.25185879     0.03340
H535        H  0.72811809  0.30699291  0.25552609     0.08450
H536        H  0.72394260  0.38632495  0.24961163     0.07280
N537        N  0.62147813  0.64657670  0.24039156    -0.27100
N538        N  0.59605474  0.63532776  0.23580658    -0.34960
C539        C  0.57446567  0.65221185  0.23604893     0.01240
C540        C  0.58675720  0.67538286  0.24108916     0.07260
C541        C  0.61678619  0.67121450  0.24359290    -0.05840
H542        H  0.55126529  0.64777122  0.23474580     0.07930
H543        H  0.63357999  0.68469198  0.24979721     0.09130
Cu544      Cu  0.59123748  0.59733757  0.23525509     0.44170
Cu545      Cu  0.65931816  0.62581239  0.24595336     0.41990
Cu546      Cu  0.65272015  0.55649421  0.25119417     0.43880
N547        N  0.58715678  0.55946616  0.24157824    -0.34490
N548        N  0.60918618  0.54417248  0.24852314    -0.28740
C549        C  0.59829651  0.52096905  0.25248388    -0.04840
C550        C  0.56814942  0.52202601  0.24746534     0.07370
C551        C  0.56189808  0.54659310  0.24058574     0.01170
H552        H  0.61132573  0.50461301  0.25814575     0.08820
H553        H  0.54048338  0.55462039  0.23557903     0.07900
N554        N  0.69226619  0.57636652  0.25091801    -0.35940
N555        N  0.69377566  0.60091921  0.24937347    -0.28120
C556        C  0.72201791  0.60793135  0.24980210    -0.03360
C557        C  0.73941726  0.58701266  0.25160851     0.05250
C558        C  0.71993858  0.56720579  0.25222448     0.03340
H559        H  0.72925130  0.62705561  0.24871495     0.08450
H560        H  0.72540208  0.54767809  0.25370155     0.07280
N561        N  0.88820275  0.64829469  0.25651056    -0.27100
N562        N  0.91501774  0.63911168  0.25237189    -0.34960
C563        C  0.93430836  0.65800875  0.25025331     0.01240
C564        C  0.91874742  0.68000162  0.25353336     0.07260
C565        C  0.88956510  0.67324278  0.25754645    -0.05840
H566        H  0.95789040  0.65594077  0.24658058     0.07930
H567        H  0.87073040  0.68545753  0.26014091     0.09130
Cu568      Cu  0.92309196  0.60110598  0.25010797     0.44170
Cu569      Cu  0.85169652  0.62581965  0.25809516     0.41990
Cu570      Cu  0.85949381  0.55843345  0.25212343     0.43880
N571        N  0.92618409  0.56251910  0.25055483    -0.34490
N572        N  0.90348075  0.54705207  0.25132511    -0.28740
C573        C  0.91371060  0.52354268  0.25167525    -0.04840
C574        C  0.94415414  0.52437401  0.25121951     0.07370
C575        C  0.95131346  0.54926739  0.25043364     0.01170
H576        H  0.90000855  0.50710965  0.25218902     0.08820
H577        H  0.97321497  0.55720181  0.24978698     0.07900
N578        N  0.81905751  0.57688978  0.25341755    -0.35940
N579        N  0.81715211  0.60133538  0.25552957    -0.28120
C580        C  0.78884521  0.60814439  0.25524206    -0.03360
C581        C  0.77175057  0.58711543  0.25297921     0.05250
C582        C  0.79152678  0.56747652  0.25190483     0.03340
H583        H  0.78137729  0.62719088  0.25653853     0.08450
H584        H  0.78635896  0.54794132  0.24986028     0.07280
O585        O  0.53712080  0.49338096  0.27918264    -0.72760
O586        O  0.97319021  0.44152245  0.28088756    -0.73740
O587        O  0.53594704  0.44074081  0.27924075    -0.62360
O588        O  0.97439871  0.49469908  0.28080739    -0.70770
O589        O  0.97407588  0.49496070  0.22015208    -0.70320
O590        O  0.53530869  0.44090122  0.21859421    -0.61570
O591        O  0.97266293  0.44204158  0.22024213    -0.74080
O592        O  0.53643642  0.49384116  0.21852527    -0.72860
Cu593      Cu  0.50511003  0.46756844  0.28217517     1.04560
Cu594      Cu  0.50461477  0.46793334  0.21727165     1.04330
C595        C  0.54662350  0.50182728  0.24847267     0.93440
C596        C  0.96315350  0.43346182  0.25087371     0.92580
C597        C  0.54522569  0.43236703  0.24859006     0.84720
C598        C  0.96491677  0.50351289  0.25073771     0.91000
N599        N  0.88952915  0.28801078  0.24493666    -0.27100
N600        N  0.91527304  0.29873155  0.24973797    -0.34960
C601        C  0.93606852  0.28120024  0.25248786     0.01240
C602        C  0.92286268  0.25826497  0.24891484     0.07260
C603        C  0.89325567  0.26317604  0.24403830    -0.05830
H604        H  0.95914255  0.28486215  0.25699328     0.07930
H605        H  0.87568775  0.24978604  0.24140641     0.09130
Cu606      Cu  0.92073746  0.33670783  0.25253302     0.44170
Cu607      Cu  0.85147673  0.30896732  0.24301013     0.41990
Cu608      Cu  0.85755315  0.37776864  0.24803239     0.43880
N609        N  0.92383458  0.37496275  0.25215811    -0.34490
N610        N  0.90117436  0.39033356  0.24998915    -0.28740
C611        C  0.91147798  0.41385744  0.24939121    -0.04840
C612        C  0.94191533  0.41295571  0.25151637     0.07370
C613        C  0.94892949  0.38810596  0.25315022     0.01170
H614        H  0.89789440  0.43030601  0.24748478     0.08820
H615        H  0.97075187  0.38009987  0.25451800     0.07900
N616        N  0.81782335  0.35796807  0.24753355    -0.35940
N617        N  0.81642183  0.33344212  0.24583133    -0.28120
C618        C  0.78815694  0.32632466  0.24709117    -0.03360
C619        C  0.77061278  0.34716638  0.24960526     0.05250
C620        C  0.79007354  0.36701473  0.24975280     0.03340
H621        H  0.78099531  0.30718840  0.24644081     0.08450
H622        H  0.78453066  0.38649269  0.25181559     0.07280
C623        C  0.50399129  0.17487066  0.25121477    -0.02300
C624        C  0.50383824  0.75813442  0.25316171    -0.02300
N625        N  0.51088600  0.10814919  0.44548151    -0.27100
N626        N  0.51459975  0.08691090  0.42813868    -0.34960
C627        C  0.51697577  0.09138105  0.39201661     0.01240
C628        C  0.51435164  0.11662507  0.38628777     0.07260
C629        C  0.51025515  0.12670039  0.42067862    -0.05840
H630        H  0.51863309  0.07717872  0.37136949     0.07930
H631        H  0.50627366  0.14599990  0.42707839     0.09130
Cu632      Cu  0.51224411  0.05260423  0.45358910     0.44170
Cu633      Cu  0.50557462  0.11061558  0.00197551     0.41990
Cu634      Cu  0.49742949  0.05194566  0.05082120     0.43880
N635        N  0.50653715  0.02046076  0.48404091    -0.34490
N636        N  0.50159724  0.02013947  0.01972939    -0.28740
C637        C  0.49965294  0.99642942  0.03130356    -0.04840
C638        C  0.50322833  0.98119401  0.00134489     0.07370
C639        C  0.50746991  0.99701456  0.47183379     0.01170
H640        H  0.49568866  0.99075336  0.05937723     0.08820
H641        H  0.51126607  0.99191232  0.44362487     0.07900
N642        N  0.49673138  0.08618650  0.07613487    -0.35940
N643        N  0.50081868  0.10749856  0.05853769    -0.28120
C644        C  0.50213899  0.12586047  0.08311157    -0.03360
C645        C  0.49830804  0.11562940  0.11769175     0.05250
C646        C  0.49481905  0.09047372  0.11226140     0.03340
H647        H  0.50614838  0.14517757  0.07637330     0.08450
H648        H  0.49259362  0.07619507  0.13308454     0.07280
N649        N  0.50639244  0.82667176  0.05646454    -0.27100
N650        N  0.50759454  0.84787461  0.07408043    -0.34960
C651        C  0.50962103  0.84321075  0.10997838     0.01240
C652        C  0.50943728  0.81763529  0.11564991     0.07260
C653        C  0.50734179  0.80787544  0.08074433    -0.05840
H654        H  0.51134867  0.85774060  0.12987004     0.07930
H655        H  0.50632753  0.78853703  0.07324863     0.09130
Cu656      Cu  0.50577410  0.88229673  0.04889066     0.44170
Cu657      Cu  0.50398830  0.82458891  0.00029554     0.41990
Cu658      Cu  0.49856707  0.88337928  0.45097015     0.43880
N659        N  0.50331311  0.91461714  0.01830050    -0.34490
N660        N  0.50122956  0.91506637  0.48235835    -0.28740
C661        C  0.50100394  0.93881023  0.47074825    -0.04840
C662        C  0.50274273  0.95395259  0.00091965     0.07370
C663        C  0.50411259  0.93803519  0.03060758     0.01170
H664        H  0.49948216  0.94457679  0.44248328     0.08820
H665        H  0.50592505  0.94304629  0.05901327     0.07900
N666        N  0.49832362  0.84896869  0.42620718    -0.35940
N667        N  0.50138976  0.82775123  0.44417841    -0.28120
C668        C  0.50268485  0.80908269  0.42017459    -0.03360
C669        C  0.49982966  0.81897184  0.38553496     0.05250
C670        C  0.49706950  0.84429165  0.39024293     0.03340
H671        H  0.50567294  0.78973784  0.42739813     0.08450
H672        H  0.49546697  0.85834159  0.36909351     0.07280
C673        C  0.50196138  0.80527312  0.35106151    -0.05280
C674        C  0.52543434  0.78895083  0.34557646    -0.32710
C675        C  0.52766064  0.77436577  0.31427184     0.36540
C676        C  0.50516402  0.77523197  0.28750448    -0.05640
C677        C  0.98196722  0.79257053  0.29339338    -0.32610
C678        C  0.98056554  0.80763870  0.32428252     0.36450
H679        H  0.54250649  0.78759301  0.36577774     0.16820
O680        O  0.55259277  0.76023211  0.31029796    -0.60100
H681        H  0.96438381  0.79402272  0.27390568     0.16830
O682        O  0.95717740  0.82347417  0.32910889    -0.60200
H683        H  0.96267186  0.83872895  0.31523854     0.43830
H684        H  0.55042971  0.74652489  0.32842205     0.43780
C685        C  0.51083088  0.80341594  0.15079750    -0.05280
C686        C  0.51539052  0.77769767  0.15011943    -0.32710
C687        C  0.51510176  0.76328561  0.18218400     0.36540
C688        C  0.50889839  0.77423889  0.21700276    -0.05640
C689        C  0.00817255  0.80057458  0.21717976    -0.32610
C690        C  0.00792400  0.81482196  0.18510447     0.36450
H691        H  0.51918168  0.76829162  0.12449287     0.16820
O692        O  0.51969393  0.73814502  0.17871607    -0.60100
H693        H  0.00765108  0.81114704  0.24187328     0.16830
O694        O  0.00363031  0.83989967  0.18815972    -0.60200
H695        H  0.02308809  0.84676480  0.19465409     0.43830
H696        H  0.53945821  0.73620633  0.16701030     0.43780
C697        C  0.50464356  0.15759505  0.28564835    -0.05280
C698        C  0.52947071  0.14219859  0.29096112    -0.32710
C699        C  0.53295650  0.12862802  0.32346661     0.36540
C700        C  0.51101908  0.12947743  0.35097403    -0.05640
C701        C  0.98488617  0.14216382  0.34438708    -0.32610
C702        C  0.98096490  0.15536377  0.31179829     0.36450
H703        H  0.54705410  0.14181701  0.27053114     0.16820
O704        O  0.55823434  0.11519227  0.32850953    -0.60100
H705        H  0.96697236  0.14133747  0.36438992     0.16830
O706        O  0.95319683  0.16415349  0.30486700    -0.60200
H707        H  0.94801616  0.17559243  0.32509925     0.43830
H708        H  0.57201301  0.12679089  0.34029344     0.43780
C709        C  0.50089861  0.12850746  0.15286765    -0.05280
C710        C  0.97870873  0.12639001  0.17983047    -0.32710
C711        C  0.97978965  0.14049689  0.21195225     0.36540
C712        C  0.50347149  0.15721081  0.21756628    -0.05640
C713        C  0.52742869  0.15625030  0.19214564    -0.32610
C714        C  0.52580493  0.14289324  0.15980667     0.36450
H715        H  0.95997740  0.11439067  0.17547411     0.16820
O716        O  0.95760262  0.13785050  0.23768841    -0.60100
H717        H  0.54774276  0.16610517  0.19652760     0.16830
O718        O  0.54892764  0.14394326  0.13513580    -0.60200
H719        H  0.56182468  0.12977794  0.14162468     0.43830
H720        H  0.93934073  0.14358243  0.22581882     0.43780
C721        C  0.93797873  0.23419717  0.25247144    -0.05280
C722        C  0.95722202  0.23106620  0.28130718    -0.32710
C723        C  0.97678303  0.21115789  0.28218244     0.36540
C724        C  0.97762356  0.19341004  0.25352059    -0.05640
C725        C  0.95645279  0.19590541  0.22580955    -0.32610
C726        C  0.93657059  0.21589445  0.22550774     0.36450
H727        H  0.95801989  0.24481958  0.30270258     0.16820
O728        O  0.49559545  0.20938548  0.31101381    -0.60100
H729        H  0.95646979  0.18374665  0.20257695     0.16830
O730        O  0.91788980  0.21863163  0.19680478    -0.60200
H731        H  0.89999703  0.20908517  0.20401331     0.43830
H732        H  0.50823321  0.22440420  0.30956510     0.43780
C733        C  0.93134109  0.70508800  0.25166047    -0.05280
C734        C  0.93477131  0.71878196  0.28336083    -0.32710
C735        C  0.95509577  0.73849812  0.28424032     0.36540
C736        C  0.97255189  0.74484274  0.25214155    -0.05640
C737        C  0.96267837  0.73427985  0.21920735    -0.32610
C738        C  0.94357442  0.71404152  0.21898598     0.36450
H739        H  0.92403493  0.71261333  0.30853302     0.16820
O740        O  0.95947793  0.74935436  0.31752261    -0.60100
H741        H  0.96970095  0.74075065  0.19286014     0.16830
O742        O  0.93823805  0.70228222  0.18670705    -0.60200
H743        H  0.91992887  0.70996533  0.17754163     0.43830
H744        H  0.96509752  0.73600379  0.33484164     0.43780
C745        C  0.52821822  0.73747541  0.25506576    -0.05280
C746        C  0.55652997  0.74112490  0.23840333    -0.32710
C747        C  0.57682782  0.72152323  0.23477121     0.36540
C748        C  0.56969223  0.69803990  0.24919250    -0.05640
C749        C  0.54438048  0.69547276  0.27092065    -0.32610
C750        C  0.52420782  0.71476668  0.27476461     0.36450
H751        H  0.56256135  0.75895461  0.22665264     0.16820
O752        O  0.60250279  0.72513532  0.21511841    -0.60100
H753        H  0.53995401  0.67808844  0.28513399     0.16830
O754        O  0.50207865  0.71150324  0.30012999    -0.60200
H755        H  0.49081246  0.69676145  0.29222370     0.43830
H756        H  0.61653045  0.73204406  0.23277976     0.43780
C757        C  0.53088907  0.19311382  0.24790019    -0.05280
C758        C  0.55216527  0.19580328  0.27546654    -0.32710
C759        C  0.57232973  0.21559135  0.27472341     0.36540
C760        C  0.57125805  0.23351670  0.24675382    -0.05640
C761        C  0.55204965  0.23013609  0.21803166    -0.32610
C762        C  0.53212457  0.21047176  0.21824769     0.36450
H763        H  0.55203517  0.18413533  0.29950456     0.16820
O764        O  0.59089831  0.21858732  0.30341572    -0.60100
H765        H  0.55145281  0.24360761  0.19589579     0.16830
O766        O  0.51307614  0.20879072  0.18969114    -0.60200
H767        H  0.50068556  0.22396143  0.19074306     0.43830
H768        H  0.60862664  0.20865104  0.29701734     0.43780
N769        N  0.61966517  0.28735426  0.75406425    -0.27100
N770        N  0.59420281  0.29802407  0.74707246    -0.34960
C771        C  0.57355250  0.28048401  0.74372422     0.01240
C772        C  0.58652246  0.25757347  0.74916237     0.07260
C773        C  0.61585983  0.26252999  0.75582493    -0.05840
H774        H  0.55066539  0.28414358  0.73794989     0.07930
H775        H  0.63320553  0.24917420  0.76053542     0.09130
Cu776      Cu  0.58863006  0.33596578  0.74336149     0.44170
Cu777      Cu  0.65751646  0.30839571  0.75805991     0.41990
Cu778      Cu  0.65103509  0.37716287  0.75286335     0.43880
N779        N  0.58502883  0.37412369  0.74538106    -0.34490
N780        N  0.60739483  0.38949220  0.74973363    -0.28740
C781        C  0.59680727  0.41288249  0.75150644    -0.04840
C782        C  0.56650668  0.41191381  0.74782135     0.07370
C783        C  0.55984016  0.38715435  0.74401718     0.01170
H784        H  0.61011554  0.42929625  0.75516957     0.08820
H785        H  0.53818922  0.37910922  0.74105577     0.07900
N786        N  0.69088616  0.35758520  0.75396670    -0.35940
N787        N  0.69246733  0.33305188  0.75583940    -0.28120
C788        C  0.72079873  0.32609836  0.75481595    -0.03360
C789        C  0.73818012  0.34706142  0.75226597     0.05250
C790        C  0.71856007  0.36680260  0.75185877     0.03340
H791        H  0.72811808  0.30699291  0.75552612     0.08450
H792        H  0.72394260  0.38632495  0.74961158     0.07280
N793        N  0.62147813  0.64657669  0.74039155    -0.27100
N794        N  0.59605474  0.63532776  0.73580656    -0.34960
C795        C  0.57446568  0.65221184  0.73604891     0.01240
C796        C  0.58675720  0.67538286  0.74108915     0.07260
C797        C  0.61678619  0.67121450  0.74359289    -0.05840
H798        H  0.55126530  0.64777121  0.73474577     0.07930
H799        H  0.63357998  0.68469197  0.74979722     0.09130
Cu800      Cu  0.59123749  0.59733756  0.73525506     0.44170
Cu801      Cu  0.65931817  0.62581239  0.74595334     0.41990
Cu802      Cu  0.65272015  0.55649420  0.75119413     0.43880
N803        N  0.58715679  0.55946615  0.74157821    -0.34490
N804        N  0.60918618  0.54417247  0.74852311    -0.28740
C805        C  0.59829651  0.52096904  0.75248384    -0.04840
C806        C  0.56814942  0.52202600  0.74746531     0.07370
C807        C  0.56189808  0.54659309  0.74058571     0.01170
H808        H  0.61132574  0.50461301  0.75814572     0.08820
H809        H  0.54048339  0.55462039  0.73557901     0.07900
N810        N  0.69226620  0.57636652  0.75091799    -0.35940
N811        N  0.69377566  0.60091920  0.74937346    -0.28120
C812        C  0.72201791  0.60793135  0.74980210    -0.03360
C813        C  0.73941727  0.58701266  0.75160851     0.05250
C814        C  0.71993858  0.56720579  0.75222446     0.03340
H815        H  0.72925131  0.62705560  0.74871495     0.08450
H816        H  0.72540208  0.54767809  0.75370153     0.07280
N817        N  0.88820275  0.64829468  0.75651058    -0.27100
N818        N  0.91501774  0.63911168  0.75237183    -0.34960
C819        C  0.93430836  0.65800875  0.75025323     0.01240
C820        C  0.91874742  0.68000162  0.75353332     0.07260
C821        C  0.88956510  0.67324277  0.75754648    -0.05840
H822        H  0.95789038  0.65594077  0.74658044     0.07930
H823        H  0.87073040  0.68545752  0.76014100     0.09130
Cu824      Cu  0.92309195  0.60110597  0.75010788     0.44170
Cu825      Cu  0.85169652  0.62581964  0.75809523     0.41990
Cu826      Cu  0.85949381  0.55843344  0.75212343     0.43880
N827        N  0.92618408  0.56251909  0.75055475    -0.34490
N828        N  0.90348075  0.54705207  0.75132506    -0.28740
C829        C  0.91371060  0.52354267  0.75167521    -0.04840
C830        C  0.94415414  0.52437400  0.75121944     0.07370
C831        C  0.95131345  0.54926739  0.75043354     0.01170
H832        H  0.90000855  0.50710964  0.75218902     0.08820
H833        H  0.97321496  0.55720181  0.74978686     0.07900
N834        N  0.81905751  0.57688977  0.75341757    -0.35940
N835        N  0.81715211  0.60133537  0.75552962    -0.28120
C836        C  0.78884521  0.60814438  0.75524210    -0.03360
C837        C  0.77175057  0.58711542  0.75297923     0.05250
C838        C  0.79152678  0.56747651  0.75190483     0.03340
H839        H  0.78137729  0.62719087  0.75653859     0.08450
H840        H  0.78635896  0.54794132  0.74986025     0.07280
O841        O  0.53712079  0.49338096  0.77918260    -0.72760
O842        O  0.97319020  0.44152244  0.78088750    -0.73740
O843        O  0.53594702  0.44074080  0.77924072    -0.62360
O844        O  0.97439871  0.49469907  0.78080733    -0.70770
O845        O  0.97407589  0.49496070  0.72015202    -0.70320
O846        O  0.53530870  0.44090122  0.71859418    -0.61570
O847        O  0.97266294  0.44204158  0.72024207    -0.74080
O848        O  0.53643642  0.49384115  0.71852523    -0.72860
Cu849      Cu  0.50511002  0.46756844  0.78217512     1.04560
Cu850      Cu  0.50461478  0.46793334  0.71727160     1.04330
C851        C  0.54662350  0.50182727  0.74847264     0.93440
C852        C  0.96315350  0.43346182  0.75087364     0.92580
C853        C  0.54522569  0.43236703  0.74859002     0.84720
C854        C  0.96491677  0.50351289  0.75073764     0.91000
N855        N  0.88952915  0.28801077  0.74493661    -0.27100
N856        N  0.91527303  0.29873155  0.74973790    -0.34960
C857        C  0.93606852  0.28120024  0.75248779     0.01240
C858        C  0.92286268  0.25826497  0.74891480     0.07260
C859        C  0.89325566  0.26317603  0.74403827    -0.05830
H860        H  0.95914255  0.28486215  0.75699320     0.07930
H861        H  0.87568774  0.24978604  0.74140641     0.09130
Cu862      Cu  0.92073746  0.33670783  0.75253293     0.44170
Cu863      Cu  0.85147673  0.30896732  0.74301010     0.41990
Cu864      Cu  0.85755314  0.37776864  0.74803235     0.43880
N865        N  0.92383458  0.37496274  0.75215802    -0.34490
N866        N  0.90117436  0.39033356  0.74998908    -0.28740
C867        C  0.91147798  0.41385744  0.74939116    -0.04840
C868        C  0.94191533  0.41295570  0.75151629     0.07370
C869        C  0.94892949  0.38810596  0.75315012     0.01170
H870        H  0.89789440  0.43030601  0.74748474     0.08820
H871        H  0.97075187  0.38009986  0.75451789     0.07900
N872        N  0.81782334  0.35796807  0.74753352    -0.35940
N873        N  0.81642182  0.33344212  0.74583131    -0.28120
C874        C  0.78815693  0.32632466  0.74709115    -0.03360
C875        C  0.77061278  0.34716638  0.74960524     0.05250
C876        C  0.79007354  0.36701473  0.74975278     0.03340
H877        H  0.78099531  0.30718840  0.74644080     0.08450
H878        H  0.78453066  0.38649269  0.75181556     0.07280
C879        C  0.50399129  0.17487066  0.75121477    -0.02300
C880        C  0.50383824  0.75813441  0.75316170    -0.02300
N881        N  0.51088597  0.10814918  0.94548151    -0.27100
N882        N  0.51459972  0.08691089  0.92813868    -0.34960
C883        C  0.51697574  0.09138105  0.89201661     0.01240
C884        C  0.51435162  0.11662506  0.88628778     0.07260
C885        C  0.51025513  0.12670038  0.92067863    -0.05840
H886        H  0.51863306  0.07717871  0.87136949     0.07930
H887        H  0.50627365  0.14599990  0.92707840     0.09130
Cu888      Cu  0.51224408  0.05260423  0.95358910     0.44170
Cu889      Cu  0.50557464  0.11061558  0.50197551     0.41990
Cu890      Cu  0.49742952  0.05194567  0.55082120     0.43880
N891        N  0.50653711  0.02046076  0.98404090    -0.34490
N892        N  0.50159728  0.02013947  0.51972939    -0.28740
C893        C  0.49965299  0.99642943  0.53130356    -0.04840
C894        C  0.50322838  0.98119402  0.50134489     0.07370
C895        C  0.50746986  0.99701456  0.97183378     0.01170
H896        H  0.49568871  0.99075336  0.55937724     0.08820
H897        H  0.51126602  0.99191232  0.94362486     0.07900
N898        N  0.49673140  0.08618651  0.57613487    -0.35940
N899        N  0.50081869  0.10749856  0.55853769    -0.28120
C900        C  0.50213900  0.12586048  0.58311157    -0.03360
C901        C  0.49830805  0.11562941  0.61769175     0.05250
C902        C  0.49481907  0.09047373  0.61226140     0.03340
H903        H  0.50614839  0.14517758  0.57637330     0.08450
H904        H  0.49259364  0.07619508  0.63308454     0.07280
N905        N  0.50639246  0.82667177  0.55646454    -0.27100
N906        N  0.50759457  0.84787462  0.57408043    -0.34960
C907        C  0.50962106  0.84321075  0.60997838     0.01240
C908        C  0.50943730  0.81763529  0.61564992     0.07260
C909        C  0.50734180  0.80787544  0.58074433    -0.05840
H910        H  0.51134871  0.85774060  0.62987005     0.07930
H911        H  0.50632755  0.78853704  0.57324863     0.09130
Cu912      Cu  0.50577414  0.88229674  0.54889067     0.44170
Cu913      Cu  0.50398832  0.82458891  0.50029554     0.41990
Cu914      Cu  0.49856704  0.88337928  0.95097014     0.43880
N915        N  0.50331315  0.91461714  0.51830051    -0.34490
N916        N  0.50122952  0.91506636  0.98235834    -0.28740
C917        C  0.50100389  0.93881023  0.97074824    -0.04840
C918        C  0.50274278  0.95395260  0.50091966     0.07370
C919        C  0.50411264  0.93803519  0.53060759     0.01170
H920        H  0.49948211  0.94457678  0.94248327     0.08820
H921        H  0.50592510  0.94304630  0.55901328     0.07900
N922        N  0.49832360  0.84896868  0.92620718    -0.35940
N923        N  0.50138974  0.82775122  0.94417840    -0.28120
C924        C  0.50268483  0.80908268  0.92017459    -0.03360
C925        C  0.49982964  0.81897183  0.88553496     0.05250
C926        C  0.49706947  0.84429164  0.89024293     0.03340
H927        H  0.50567293  0.78973784  0.92739813     0.08450
H928        H  0.49546695  0.85834158  0.86909350     0.07280
C929        C  0.50196137  0.80527311  0.85106151    -0.05280
C930        C  0.52543432  0.78895081  0.84557647    -0.32710
C931        C  0.52766062  0.77436574  0.81427186     0.36540
C932        C  0.50516401  0.77523195  0.78750448    -0.05640
C933        C  0.98196721  0.79257053  0.79339337    -0.32610
C934        C  0.98056554  0.80763869  0.82428251     0.36450
H935        H  0.54250646  0.78759297  0.86577776     0.16820
O936        O  0.55259274  0.76023207  0.81029799    -0.60100
H937        H  0.96438381  0.79402272  0.77390567     0.16830
O938        O  0.95717740  0.82347417  0.82910887    -0.60200
H939        H  0.96267187  0.83872895  0.81523852     0.43830
H940        H  0.55042965  0.74652485  0.82842208     0.43780
C941        C  0.51083089  0.80341594  0.65079750    -0.05280
C942        C  0.51539054  0.77769767  0.65011942    -0.32710
C943        C  0.51510178  0.76328561  0.68218400     0.36540
C944        C  0.50889840  0.77423888  0.71700276    -0.05640
C945        C  0.00817255  0.80057458  0.71717976    -0.32610
C946        C  0.00792400  0.81482196  0.68510447     0.36450
H947        H  0.51918170  0.76829162  0.62449286     0.16820
O948        O  0.51969395  0.73814502  0.67871606    -0.60100
H949        H  0.00765108  0.81114703  0.74187328     0.16830
O950        O  0.00363031  0.83989967  0.68815972    -0.60200
H951        H  0.02308808  0.84676480  0.69465411     0.43830
H952        H  0.53945824  0.73620634  0.66701030     0.43780
C953        C  0.50464355  0.15759505  0.78564836    -0.05280
C954        C  0.52947069  0.14219858  0.79096112    -0.32710
C955        C  0.53295648  0.12862801  0.82346661     0.36540
C956        C  0.51101907  0.12947743  0.85097403    -0.05640
C957        C  0.98488615  0.14216382  0.84438708    -0.32610
C958        C  0.98096489  0.15536378  0.81179829     0.36450
H959        H  0.54705409  0.14181700  0.77053115     0.16820
O960        O  0.55823431  0.11519226  0.82850953    -0.60100
H961        H  0.96697234  0.14133748  0.86438992     0.16830
O962        O  0.95319682  0.16415350  0.80486700    -0.60200
H963        H  0.94801615  0.17559244  0.82509925     0.43830
H964        H  0.57201300  0.12679087  0.84029344     0.43780
C965        C  0.50089862  0.12850747  0.65286765    -0.05280
C966        C  0.97870873  0.12639001  0.67983047    -0.32710
C967        C  0.97978966  0.14049689  0.71195225     0.36540
C968        C  0.50347149  0.15721081  0.71756628    -0.05640
C969        C  0.52742870  0.15625030  0.69214564    -0.32610
C970        C  0.52580494  0.14289324  0.65980667     0.36450
H971        H  0.95997741  0.11439067  0.67547410     0.16820
O972        O  0.95760262  0.13785050  0.73768841    -0.60100
H973        H  0.54774276  0.16610518  0.69652760     0.16830
O974        O  0.54892765  0.14394327  0.63513581    -0.60200
H975        H  0.56182469  0.12977795  0.64162468     0.43830
H976        H  0.93934073  0.14358242  0.72581882     0.43780
C977        C  0.93797873  0.23419717  0.75247141    -0.05280
C978        C  0.95722201  0.23106621  0.78130716    -0.32710
C979        C  0.97678302  0.21115789  0.78218243     0.36540
C980        C  0.97762356  0.19341004  0.75352058    -0.05640
C981        C  0.95645279  0.19590541  0.72580953    -0.32610
C982        C  0.93657059  0.21589445  0.72550772     0.36450
H983        H  0.95801988  0.24481958  0.80270255     0.16820
O984        O  0.49559544  0.20938549  0.81101381    -0.60100
H985        H  0.95646979  0.18374664  0.70257694     0.16830
O986        O  0.91788980  0.21863162  0.69680475    -0.60200
H987        H  0.89999703  0.20908517  0.70401328     0.43830
H988        H  0.50823320  0.22440421  0.80956509     0.43780
C989        C  0.93134108  0.70508800  0.75166043    -0.05280
C990        C  0.93477129  0.71878197  0.78336079    -0.32710
C991        C  0.95509575  0.73849812  0.78424028     0.36540
C992        C  0.97255188  0.74484274  0.75214153    -0.05640
C993        C  0.96267838  0.73427983  0.71920732    -0.32610
C994        C  0.94357442  0.71404150  0.71898595     0.36450
H995        H  0.92403490  0.71261334  0.80853297     0.16820
O996        O  0.95947790  0.74935436  0.81752258    -0.60100
H997        H  0.96970097  0.74075063  0.69286012     0.16830
O998        O  0.93823807  0.70228219  0.68670702    -0.60200
H999        H  0.91992890  0.70996530  0.67754159     0.43830
H1000       H  0.96509752  0.73600379  0.83484160     0.43780
C1001       C  0.52821821  0.73747540  0.75506576    -0.05280
C1002       C  0.55652997  0.74112490  0.73840335    -0.32710
C1003       C  0.57682782  0.72152323  0.73477123     0.36540
C1004       C  0.56969222  0.69803989  0.74919249    -0.05640
C1005       C  0.54438046  0.69547274  0.77092061    -0.32610
C1006       C  0.52420779  0.71476666  0.77476458     0.36450
H1007       H  0.56256135  0.75895461  0.72665268     0.16820
O1008       O  0.60250280  0.72513532  0.71511846    -0.60100
H1009       H  0.53995398  0.67808842  0.78513394     0.16830
O1010       O  0.50207861  0.71150320  0.80012992    -0.60200
H1011       H  0.49081242  0.69676142  0.79222358     0.43830
H1012       H  0.61653045  0.73204406  0.73277982     0.43780
C1013       C  0.53088907  0.19311382  0.74790021    -0.05280
C1014       C  0.55216527  0.19580327  0.77546656    -0.32710
C1015       C  0.57232973  0.21559134  0.77472344     0.36540
C1016       C  0.57125806  0.23351670  0.74675386    -0.05640
C1017       C  0.55204966  0.23013609  0.71803169    -0.32610
C1018       C  0.53212458  0.21047176  0.71824771     0.36450
H1019       H  0.55203517  0.18413532  0.79950458     0.16820
O1020       O  0.59089831  0.21858731  0.80341577    -0.60100
H1021       H  0.55145283  0.24360761  0.69589583     0.16830
O1022       O  0.51307616  0.20879073  0.68969115    -0.60200
H1023       H  0.50068557  0.22396144  0.69074308     0.43830
H1024       H  0.60862664  0.20865103  0.79701738     0.43780
loop_ 
_geom_bond_atom_site_label_1 
_geom_bond_atom_site_label_2 
_geom_bond_distance 
_geom_bond_site_symmetry_2 
_ccdc_geom_bond_type 
N1            N2   1.319       .  A
N1            C5   1.349       .  A
N1           Cu9   2.067       .  S
N2            C3   1.339       .  A
N2           Cu8   2.063       .  S
C3            C4   1.382       .  A
C3            H6   1.082       .  S
C4            C5   1.385       .  A
C4          C248   1.474       .  S
C5            H7   1.082       .  S
Cu8          N11   2.064       .  S
Cu9          N19   2.070       .  S
Cu10         N12   2.094       .  S
Cu10         N18   2.095       .  S
N11          N12   1.323       .  A
N11          C15   1.343       .  A
N12          C13   1.350       .  A
C13          C14   1.386       .  A
C13          H16   1.082       .  S
C14          C15   1.377       .  A
C14          C85   1.465       .  S
C15          H17   1.082       .  S
N18          N19   1.325       .  A
N18          C22   1.352       .  A
N19          C20   1.339       .  A
C20          C21   1.379       .  A
C20          H23   1.082       .  S
C21          C22   1.387       .  A
C21         C107   1.474       .  S
C22          H24   1.082       .  S
N25          N26   1.318       .  A
N25          C29   1.350       .  A
N25         Cu33   2.062       .  S
N26          C27   1.337       .  A
N26         Cu32   2.058       .  S
C27          C28   1.383       .  A
C27          H30   1.082       .  S
C28          C29   1.386       .  A
C28         C236   1.474       .  S
C29          H31   1.082       .  S
Cu32         N35   2.059       .  S
Cu33         N43   2.065       .  S
Cu34         N36   2.089       .  S
Cu34         N42   2.090       .  S
N35          N36   1.323       .  A
N35          C39   1.342       .  A
N36          C37   1.350       .  A
C37          C38   1.386       .  A
C37          H40   1.082       .  S
C38          C39   1.376       .  A
C38          C83   1.462       .  S
C39          H41   1.082       .  S
N42          N43   1.325       .  A
N42          C46   1.351       .  A
N43          C44   1.337       .  A
C44          C45   1.378       .  A
C44          H47   1.082       .  S
C45          C46   1.386       .  A
C45          C69   1.470       .  S
C46          H48   1.082       .  S
N49          N50   1.320       .  A
N49          C53   1.346       .  A
N49         Cu57   2.052       .  S
N50          C51   1.344       .  A
N50         Cu56   2.082       .  S
C51          C52   1.384       .  A
C51          H54   1.082       .  S
C52          C53   1.379       .  A
C52         C221   1.468       .  S
C53          H55   1.082       .  S
Cu56         N59   2.083       .  S
Cu57         N67   2.054       .  S
Cu58         N60   2.088       .  S
Cu58         N66   2.087       .  S
N59          N60   1.325       .  A
N59          C63   1.345       .  A
N60          C61   1.349       .  A
C61          C62   1.383       .  A
C61          H64   1.082       .  S
C62          C63   1.380       .  A
C62          C86   1.466       .  S
C63          H65   1.082       .  S
N66          N67   1.322       .  A
N66          C70   1.351       .  A
N67          C68   1.336       .  A
C68          C69   1.377       .  A
C68          H71   1.082       .  S
C69          C70   1.388       .  A
C70          H72   1.082       .  S
O73         Cu81   2.012       .  S
O73          C83   1.277       .  A
O74        Cu593   2.019       .  S
O74          C84   1.278       .  A
O75         Cu81   2.014       .  S
O75          C85   1.277       .  A
O76        Cu593   2.020       .  S
O76          C86   1.278       .  A
O77        Cu594   2.012       .  S
O77          C86   1.277       .  A
O78         Cu82   2.016       .  S
O78          C85   1.278       .  A
O79        Cu594   2.013       .  S
O79          C84   1.277       .  A
O80         Cu82   2.010       .  S
O80          C83   1.277       .  A
Cu81        O586   2.019   1_455  S
Cu81        O588   2.020   1_455  S
Cu81        Cu82   2.378       .  S
Cu82        O589   2.012   1_455  S
Cu82        O591   2.013   1_455  S
C84         C100   1.466       .  S
N87          N88   1.319       .  A
N87          C91   1.349       .  A
N87         Cu95   2.065       .  S
N88          C89   1.340       .  A
N88         Cu94   2.064       .  S
C89          C90   1.382       .  A
C89          H92   1.082       .  S
C90          C91   1.385       .  A
C90         C209   1.473       .  S
C91          H93   1.082       .  S
Cu94         N97   2.065       .  S
Cu95        N105   2.068       .  S
Cu96         N98   2.096       .  S
Cu96        N104   2.096       .  S
N97          N98   1.323       .  A
N97         C101   1.343       .  A
N98          C99   1.351       .  A
C99         C100   1.386       .  A
C99         H102   1.082       .  S
C100        C101   1.377       .  A
C101        H103   1.082       .  S
N104        N105   1.325       .  A
N104        C108   1.352       .  A
N105        C106   1.339       .  A
C106        C107   1.379       .  A
C106        H109   1.082       .  S
C107        C108   1.387       .  A
C108        H110   1.082       .  S
C111        C185   1.562       .  S
C111        C200   1.564       .  S
C111        C245   1.570       .  S
C111        C724   1.560   1_455  S
C112        C164   1.568       .  S
C112        C176   1.590       .  S
C112        C233   1.571       .  S
C112        C736   1.592   1_455  S
N113        N114   1.322       .  A
N113        C117   1.345       .  A
N113       Cu377   2.084       .  S
N114        C115   1.345       .  A
N114       Cu120   2.064       .  S
C115        C116   1.380       .  A
C115        H118   1.082       .  S
C116        C117   1.385       .  A
C116        C188   1.472       .  S
C117        H119   1.082       .  S
Cu120       N123   2.065       .  S
Cu121       N131   2.084       .  S
Cu121       N369   2.084   1_554  S
Cu122       N124   2.072   1_655  S
Cu122       N130   2.071       .  S
N123        N380   1.322       .  A
N123        C127   1.344   1_545  A
N124        N379   1.322   1_554  A
N124        C125   1.345   1_445  A
C125        C126   1.383   1_655  A
C125        H128   1.082       .  S
C126        C383   1.381   1_554  A
C126        C150   1.468       .  S
C127        C382   1.381       .  A
C127        H129   1.082       .  S
N130        N131   1.323   1_655  A
N130        C134   1.346       .  A
N131        C132   1.345       .  A
C132        C133   1.385   1_455  A
C132        H135   1.082       .  S
C133        C134   1.381       .  A
C133        C197   1.475   1_655  S
C134        H136   1.082       .  S
N137        N138   1.318       .  A
N137        C141   1.343       .  A
N137       Cu145   2.066       .  S
N138        C139   1.342       .  A
N138       Cu144   2.066       .  S
C139        C140   1.391       .  A
C139        H142   1.078       .  S
C140        C141   1.392       .  A
C140        C173   1.495       .  S
C141        H143   1.081       .  S
Cu144       N147   2.066       .  S
Cu145       N411   2.067   1_554  S
Cu146       N148   2.071   1_655  S
Cu146       N154   2.071       .  S
N147        N404   1.322   1_554  A
N147        C151   1.344       .  A
N148        N403   1.322       .  A
N148        C149   1.344       .  A
C149        C406   1.383       .  A
C149        H152   1.082   1_455  S
C150        C151   1.381       .  A
C150        C405   1.383   1_554  A
C151        H153   1.082       .  S
N154        N155   1.323   1_655  A
N154        C158   1.346       .  A
N155        C156   1.342       .  A
N155       Cu401   2.067       .  S
C156        C157   1.380   1_455  A
C156        H159   1.082       .  S
C157        C158   1.382       .  A
C157        C161   1.469   1_655  S
C158        H160   1.082       .  S
C161        C162   1.394       .  A
C161        C678   1.399   1_455  A
C162        C163   1.397       .  A
C162        H167   1.084       .  S
C163        C164   1.430       .  A
C163        O168   1.370       .  S
C164        C677   1.422   1_455  A
C165        C166   1.398       .  A
C165        C676   1.422       .  A
C165        H169   1.084       .  S
C166        C673   1.399       .  A
C166        O170   1.371       .  S
O168        H172   0.992       .  S
O170        H171   0.992       .  S
C173        C174   1.401       .  A
C173        C690   1.407       .  A
C174        C175   1.402       .  A
C174        H179   1.081       .  S
C175        C176   1.433       .  A
C175        O180   1.377       .  S
C176        C689   1.419       .  A
C177        C178   1.398       .  A
C177        C688   1.419       .  A
C177        H181   1.073       .  S
C178        C685   1.407       .  A
C178        O182   1.370       .  S
O180        H184   0.992       .  S
O182        H183   0.992       .  S
C185        C186   1.415       .  A
C185        C702   1.430   1_455  A
C186        C187   1.403       .  A
C186        H191   1.083       .  S
C187        C188   1.403       .  A
C187        O192   1.371       .  S
C188        C701   1.393   1_455  A
C189        C190   1.399       .  A
C189        C700   1.393       .  A
C189        H193   1.084       .  S
C190        C697   1.430       .  A
C190        O194   1.374       .  S
O192        H196   0.992       .  S
O194        H195   0.992       .  S
C197        C202   1.400       .  A
C197        C710   1.400   1_455  A
C198        C199   1.408       .  A
C198        C709   1.400       .  A
C198        H203   1.084       .  S
C199        C712   1.422       .  A
C199        O204   1.372       .  S
C200        C201   1.419       .  A
C200        C711   1.422   1_455  A
C201        C202   1.394       .  A
C201        H205   1.080       .  S
C202        O206   1.372       .  S
O204        H208   0.992       .  S
O206        H207   0.992       .  S
C209        C210   1.393       .  A
C209        C214   1.404       .  A
C210        C211   1.393       .  A
C210        H215   1.084       .  S
C211        C212   1.426       .  A
C211        O728   1.374       .  S
C212        C213   1.417       .  A
C212        C623   1.560       .  S
C213        C214   1.405       .  A
C213        H217   1.078       .  S
C214        O218   1.371       .  S
O216        C723   1.374       .  S
O216        H220   0.992   1_655  S
O218        H219   0.992       .  S
C221        C222   1.392       .  A
C221        C226   1.392       .  A
C222        C223   1.408       .  A
C222        H227   1.084       .  S
C223        C224   1.443       .  A
C223        O228   1.375       .  S
C224        C225   1.419       .  A
C224        C624   1.592       .  S
C225        C226   1.394       .  A
C225        H229   1.066       .  S
C226        O230   1.372       .  S
O228        H232   0.992       .  S
O230        H231   0.992       .  S
C233        C234   1.425       .  A
C233        C238   1.425       .  A
C234        C235   1.407       .  A
C234        H239   1.082       .  S
C235        C236   1.402       .  A
C235        O240   1.371       .  S
C236        C237   1.391       .  A
C237        C238   1.391       .  A
C237        H241   1.084       .  S
C238        O242   1.365       .  S
O240        H244   0.992       .  S
O242        H243   0.993   1_455  S
C245        C246   1.420       .  A
C245        C250   1.427       .  A
C246        C247   1.405       .  A
C246        H251   1.077       .  S
C247        C248   1.403       .  A
C247        O252   1.371       .  S
C248        C249   1.393       .  A
C249        C250   1.393       .  A
C249        H253   1.084       .  S
C250        O254   1.374       .  S
O252        H256   0.992       .  S
O254        H255   0.992       .  S
N257        N258   1.319       .  A
N257        C261   1.349       .  A
N257       Cu265   2.067       .  S
N258        C259   1.339       .  A
N258       Cu264   2.063       .  S
C259        C260   1.382       .  A
C259        H262   1.082       .  S
C260        C261   1.385       .  A
C260        C504   1.474       .  S
C261        H263   1.082       .  S
Cu264       N267   2.064       .  S
Cu265       N275   2.070       .  S
Cu266       N268   2.094       .  S
Cu266       N274   2.095       .  S
N267        N268   1.323       .  A
N267        C271   1.343       .  A
N268        C269   1.350       .  A
C269        C270   1.386       .  A
C269        H272   1.082       .  S
C270        C271   1.377       .  A
C270        C341   1.465       .  S
C271        H273   1.082       .  S
N274        N275   1.325       .  A
N274        C278   1.352       .  A
N275        C276   1.339       .  A
C276        C277   1.379       .  A
C276        H279   1.082       .  S
C277        C278   1.387       .  A
C277        C363   1.474       .  S
C278        H280   1.082       .  S
N281        N282   1.318       .  A
N281        C285   1.350       .  A
N281       Cu289   2.062       .  S
N282        C283   1.337       .  A
N282       Cu288   2.058       .  S
C283        C284   1.383       .  A
C283        H286   1.082       .  S
C284        C285   1.386       .  A
C284        C492   1.474       .  S
C285        H287   1.082       .  S
Cu288       N291   2.059       .  S
Cu289       N299   2.065       .  S
Cu290       N292   2.089       .  S
Cu290       N298   2.090       .  S
N291        N292   1.323       .  A
N291        C295   1.342       .  A
N292        C293   1.350       .  A
C293        C294   1.386       .  A
C293        H296   1.082       .  S
C294        C295   1.376       .  A
C294        C339   1.462       .  S
C295        H297   1.082       .  S
N298        N299   1.325       .  A
N298        C302   1.351       .  A
N299        C300   1.337       .  A
C300        C301   1.378       .  A
C300        H303   1.082       .  S
C301        C302   1.386       .  A
C301        C325   1.470       .  S
C302        H304   1.082       .  S
N305        N306   1.320       .  A
N305        C309   1.346       .  A
N305       Cu313   2.052       .  S
N306        C307   1.344       .  A
N306       Cu312   2.082       .  S
C307        C308   1.384       .  A
C307        H310   1.082       .  S
C308        C309   1.379       .  A
C308        C477   1.468       .  S
C309        H311   1.082       .  S
Cu312       N315   2.083       .  S
Cu313       N323   2.054       .  S
Cu314       N316   2.088       .  S
Cu314       N322   2.087       .  S
N315        N316   1.325       .  A
N315        C319   1.345       .  A
N316        C317   1.349       .  A
C317        C318   1.383       .  A
C317        H320   1.082       .  S
C318        C319   1.380       .  A
C318        C342   1.466       .  S
C319        H321   1.082       .  S
N322        N323   1.322       .  A
N322        C326   1.351       .  A
N323        C324   1.336       .  A
C324        C325   1.377       .  A
C324        H327   1.082       .  S
C325        C326   1.388       .  A
C326        H328   1.082       .  S
O329       Cu337   2.012       .  S
O329        C339   1.277       .  A
O330       Cu849   2.019       .  S
O330        C340   1.278       .  A
O331       Cu337   2.014       .  S
O331        C341   1.277       .  A
O332       Cu849   2.020       .  S
O332        C342   1.278       .  A
O333       Cu850   2.012       .  S
O333        C342   1.277       .  A
O334       Cu338   2.016       .  S
O334        C341   1.278       .  A
O335       Cu850   2.013       .  S
O335        C340   1.277       .  A
O336       Cu338   2.010       .  S
O336        C339   1.277       .  A
Cu337       O842   2.019   1_455  S
Cu337       O844   2.020   1_455  S
Cu337      Cu338   2.378       .  S
Cu338       O845   2.012   1_455  S
Cu338       O847   2.013   1_455  S
C340        C356   1.466       .  S
N343        N344   1.319       .  A
N343        C347   1.349       .  A
N343       Cu351   2.065       .  S
N344        C345   1.340       .  A
N344       Cu350   2.064       .  S
C345        C346   1.382       .  A
C345        H348   1.082       .  S
C346        C347   1.385       .  A
C346        C465   1.473       .  S
C347        H349   1.082       .  S
Cu350       N353   2.065       .  S
Cu351       N361   2.068       .  S
Cu352       N354   2.096       .  S
Cu352       N360   2.096       .  S
N353        N354   1.323       .  A
N353        C357   1.343       .  A
N354        C355   1.351       .  A
C355        C356   1.386       .  A
C355        H358   1.082       .  S
C356        C357   1.377       .  A
C357        H359   1.082       .  S
N360        N361   1.325       .  A
N360        C364   1.352       .  A
N361        C362   1.339       .  A
C362        C363   1.379       .  A
C362        H365   1.082       .  S
C363        C364   1.387       .  A
C364        H366   1.082       .  S
C367        C441   1.562       .  S
C367        C456   1.564       .  S
C367        C980   1.560   1_455  S
C367        C501   1.570       .  S
C368        C420   1.568       .  S
C368        C432   1.590       .  S
C368        C992   1.592   1_455  S
C368        C489   1.571       .  S
N369        N370   1.322       .  A
N369        C373   1.345       .  A
N370        C371   1.345       .  A
N370       Cu376   2.064       .  S
C371        C372   1.380       .  A
C371        H374   1.082       .  S
C372        C373   1.385       .  A
C372        C444   1.472       .  S
C373        H375   1.082       .  S
Cu376       N379   2.065       .  S
Cu377       N387   2.084       .  S
Cu378       N380   2.072   1_655  S
Cu378       N386   2.071       .  S
N379        C383   1.344   1_545  A
N380        C381   1.345   1_445  A
C381        C382   1.383   1_655  A
C381        H384   1.082       .  S
C382        C406   1.468       .  S
C383        H385   1.082       .  S
N386        N387   1.323   1_655  A
N386        C390   1.346       .  A
N387        C388   1.345       .  A
C388        C389   1.385   1_455  A
C388        H391   1.082       .  S
C389        C390   1.381       .  A
C389        C453   1.475   1_655  S
C390        H392   1.082       .  S
N393        N394   1.318       .  A
N393        C397   1.343       .  A
N393       Cu401   2.066       .  S
N394        C395   1.342       .  A
N394       Cu400   2.066       .  S
C395        C396   1.391       .  A
C395        H398   1.078       .  S
C396        C397   1.392       .  A
C396        C429   1.495       .  S
C397        H399   1.081       .  S
Cu400       N403   2.066       .  S
Cu402       N404   2.071   1_655  S
Cu402       N410   2.071       .  S
N403        C407   1.344       .  A
N404        C405   1.344       .  A
C405        H408   1.082   1_455  S
C406        C407   1.381       .  A
C407        H409   1.082       .  S
N410        N411   1.323   1_655  A
N410        C414   1.346       .  A
N411        C412   1.342       .  A
C412        C413   1.380   1_455  A
C412        H415   1.082       .  S
C413        C414   1.382       .  A
C413        C417   1.469   1_655  S
C414        H416   1.082       .  S
C417        C418   1.394       .  A
C417        C934   1.399   1_455  A
C418        C419   1.397       .  A
C418        H423   1.084       .  S
C419        C420   1.430       .  A
C419        O424   1.370       .  S
C420        C933   1.422   1_455  A
C421        C932   1.422       .  A
C421        C422   1.398       .  A
C421        H425   1.084       .  S
C422        C929   1.399       .  A
C422        O426   1.371       .  S
O424        H428   0.992       .  S
O426        H427   0.992       .  S
C429        C430   1.401       .  A
C429        C946   1.407       .  A
C430        C431   1.402       .  A
C430        H435   1.081       .  S
C431        C432   1.433       .  A
C431        O436   1.377       .  S
C432        C945   1.419       .  A
C433        C944   1.419       .  A
C433        C434   1.398       .  A
C433        H437   1.073       .  S
C434        C941   1.407       .  A
C434        O438   1.370       .  S
O436        H440   0.992       .  S
O438        H439   0.992       .  S
C441        C442   1.415       .  A
C441        C958   1.430   1_455  A
C442        C443   1.403       .  A
C442        H447   1.083       .  S
C443        C444   1.403       .  A
C443        O448   1.371       .  S
C444        C957   1.393   1_455  A
C445        C956   1.393       .  A
C445        C446   1.399       .  A
C445        H449   1.084       .  S
C446        C953   1.430       .  A
C446        O450   1.374       .  S
O448        H452   0.992       .  S
O450        H451   0.992       .  S
C453        C966   1.400   1_455  A
C453        C458   1.400       .  A
C454        C965   1.400       .  A
C454        C455   1.408       .  A
C454        H459   1.084       .  S
C455        C968   1.422       .  A
C455        O460   1.372       .  S
C456        C967   1.422   1_455  A
C456        C457   1.419       .  A
C457        C458   1.394       .  A
C457        H461   1.080       .  S
C458        O462   1.372       .  S
O460        H464   0.992       .  S
O462        H463   0.992       .  S
C465        C466   1.393       .  A
C465        C470   1.404       .  A
C466        C467   1.393       .  A
C466        H471   1.084       .  S
C467        C468   1.426       .  A
C467        O984   1.374       .  S
C468        C469   1.417       .  A
C468        C879   1.560       .  S
C469        C470   1.405       .  A
C469        H473   1.078       .  S
C470        O474   1.371       .  S
O472        C979   1.374       .  S
O472        H476   0.992   1_655  S
O474        H475   0.992       .  S
C477        C478   1.392       .  A
C477        C482   1.392       .  A
C478        C479   1.408       .  A
C478        H483   1.084       .  S
C479        C480   1.443       .  A
C479        O484   1.375       .  S
C480        C481   1.419       .  A
C480        C880   1.592       .  S
C481        C482   1.394       .  A
C481        H485   1.066       .  S
C482        O486   1.372       .  S
O484        H488   0.992       .  S
O486        H487   0.992       .  S
C489        C490   1.425       .  A
C489        C494   1.425       .  A
C490        C491   1.407       .  A
C490        H495   1.082       .  S
C491        C492   1.402       .  A
C491        O496   1.371       .  S
C492        C493   1.391       .  A
C493        C494   1.391       .  A
C493        H497   1.084       .  S
C494        O498   1.365       .  S
O496        H500   0.992       .  S
O498        H499   0.993   1_455  S
C501        C502   1.420       .  A
C501        C506   1.427       .  A
C502        C503   1.405       .  A
C502        H507   1.077       .  S
C503        C504   1.403       .  A
C503        O508   1.371       .  S
C504        C505   1.393       .  A
C505        C506   1.393       .  A
C505        H509   1.084       .  S
C506        O510   1.374       .  S
O508        H512   0.992       .  S
O510        H511   0.992       .  S
N513        N514   1.319       .  A
N513        C517   1.349       .  A
N513       Cu521   2.067       .  S
N514        C515   1.339       .  A
N514       Cu520   2.063       .  S
C515        C516   1.382       .  A
C515        H518   1.082       .  S
C516        C517   1.385       .  A
C516        C760   1.474       .  S
C517        H519   1.082       .  S
Cu520       N523   2.064       .  S
Cu521       N531   2.070       .  S
Cu522       N524   2.094       .  S
Cu522       N530   2.095       .  S
N523        N524   1.323       .  A
N523        C527   1.343       .  A
N524        C525   1.350       .  A
C525        C526   1.386       .  A
C525        H528   1.082       .  S
C526        C527   1.377       .  A
C526        C597   1.465       .  S
C527        H529   1.082       .  S
N530        N531   1.325       .  A
N530        C534   1.352       .  A
N531        C532   1.339       .  A
C532        C533   1.379       .  A
C532        H535   1.082       .  S
C533        C534   1.387       .  A
C533        C619   1.474       .  S
C534        H536   1.082       .  S
N537        N538   1.318       .  A
N537        C541   1.350       .  A
N537       Cu545   2.062       .  S
N538        C539   1.337       .  A
N538       Cu544   2.058       .  S
C539        C540   1.383       .  A
C539        H542   1.082       .  S
C540        C541   1.386       .  A
C540        C748   1.474       .  S
C541        H543   1.082       .  S
Cu544       N547   2.059       .  S
Cu545       N555   2.065       .  S
Cu546       N548   2.089       .  S
Cu546       N554   2.090       .  S
N547        N548   1.323       .  A
N547        C551   1.342       .  A
N548        C549   1.350       .  A
C549        C550   1.386       .  A
C549        H552   1.082       .  S
C550        C551   1.376       .  A
C550        C595   1.462       .  S
C551        H553   1.082       .  S
N554        N555   1.325       .  A
N554        C558   1.351       .  A
N555        C556   1.337       .  A
C556        C557   1.378       .  A
C556        H559   1.082       .  S
C557        C558   1.386       .  A
C557        C581   1.470       .  S
C558        H560   1.082       .  S
N561        N562   1.320       .  A
N561        C565   1.346       .  A
N561       Cu569   2.052       .  S
N562        C563   1.344       .  A
N562       Cu568   2.082       .  S
C563        C564   1.384       .  A
C563        H566   1.082       .  S
C564        C565   1.379       .  A
C564        C733   1.468       .  S
C565        H567   1.082       .  S
Cu568       N571   2.083       .  S
Cu569       N579   2.054       .  S
Cu570       N572   2.088       .  S
Cu570       N578   2.087       .  S
N571        N572   1.325       .  A
N571        C575   1.345       .  A
N572        C573   1.349       .  A
C573        C574   1.383       .  A
C573        H576   1.082       .  S
C574        C575   1.380       .  A
C574        C598   1.466       .  S
C575        H577   1.082       .  S
N578        N579   1.322       .  A
N578        C582   1.351       .  A
N579        C580   1.336       .  A
C580        C581   1.377       .  A
C580        H583   1.082       .  S
C581        C582   1.388       .  A
C582        H584   1.082       .  S
O585       Cu593   2.012       .  S
O585        C595   1.277       .  A
O586        C596   1.278       .  A
O587       Cu593   2.014       .  S
O587        C597   1.277       .  A
O588        C598   1.278       .  A
O589        C598   1.277       .  A
O590       Cu594   2.016       .  S
O590        C597   1.278       .  A
O591        C596   1.277       .  A
O592       Cu594   2.010       .  S
O592        C595   1.277       .  A
Cu593      Cu594   2.378       .  S
C596        C612   1.466       .  S
N599        N600   1.319       .  A
N599        C603   1.349       .  A
N599       Cu607   2.065       .  S
N600        C601   1.340       .  A
N600       Cu606   2.064       .  S
C601        C602   1.382       .  A
C601        H604   1.082       .  S
C602        C603   1.385       .  A
C602        C721   1.473       .  S
C603        H605   1.082       .  S
Cu606       N609   2.065       .  S
Cu607       N617   2.068       .  S
Cu608       N610   2.096       .  S
Cu608       N616   2.096       .  S
N609        N610   1.323       .  A
N609        C613   1.343       .  A
N610        C611   1.351       .  A
C611        C612   1.386       .  A
C611        H614   1.082       .  S
C612        C613   1.377       .  A
C613        H615   1.082       .  S
N616        N617   1.325       .  A
N616        C620   1.352       .  A
N617        C618   1.339       .  A
C618        C619   1.379       .  A
C618        H621   1.082       .  S
C619        C620   1.387       .  A
C620        H622   1.082       .  S
C623        C697   1.562       .  S
C623        C712   1.564       .  S
C623        C757   1.570       .  S
C624        C676   1.568       .  S
C624        C688   1.590       .  S
C624        C745   1.571       .  S
N625        N626   1.322       .  A
N625        C629   1.345       .  A
N625       Cu889   2.084       .  S
N626        C627   1.345       .  A
N626       Cu632   2.064       .  S
C627        C628   1.380       .  A
C627        H630   1.082       .  S
C628        C629   1.385       .  A
C628        C700   1.472       .  S
C629        H631   1.082       .  S
Cu632       N635   2.065       .  S
Cu633       N881   2.084   1_554  S
Cu633       N643   2.084       .  S
Cu634       N636   2.072       .  S
Cu634       N642   2.071       .  S
N635        N892   1.322       .  A
N635        C639   1.344   1_545  A
N636        N891   1.322   1_554  A
N636        C637   1.345   1_545  A
C637        C638   1.383       .  A
C637        H640   1.082       .  S
C638        C895   1.381   1_554  A
C638        C662   1.468       .  S
C639        C894   1.381       .  A
C639        H641   1.082       .  S
N642        N643   1.323       .  A
N642        C646   1.346       .  A
N643        C644   1.345       .  A
C644        C645   1.385       .  A
C644        H647   1.082       .  S
C645        C646   1.381       .  A
C645        C709   1.475       .  S
C646        H648   1.082       .  S
N649        N650   1.318       .  A
N649        C653   1.343       .  A
N649       Cu657   2.066       .  S
N650        C651   1.342       .  A
N650       Cu656   2.066       .  S
C651        C652   1.391       .  A
C651        H654   1.078       .  S
C652        C653   1.392       .  A
C652        C685   1.495       .  S
C653        H655   1.081       .  S
Cu656       N659   2.066       .  S
Cu657       N923   2.067   1_554  S
Cu658       N660   2.071       .  S
Cu658       N666   2.071       .  S
N659        N916   1.322   1_554  A
N659        C663   1.344       .  A
N660        N915   1.322       .  A
N660        C661   1.344       .  A
C661        C918   1.383       .  A
C661        H664   1.082       .  S
C662        C917   1.383   1_554  A
C662        C663   1.381       .  A
C663        H665   1.082       .  S
N666        N667   1.323       .  A
N666        C670   1.346       .  A
N667        C668   1.342       .  A
N667       Cu913   2.067       .  S
C668        C669   1.380       .  A
C668        H671   1.082       .  S
C669        C670   1.382       .  A
C669        C673   1.469       .  S
C670        H672   1.082       .  S
C673        C674   1.394       .  A
C674        C675   1.397       .  A
C674        H679   1.084       .  S
C675        C676   1.430       .  A
C675        O680   1.370       .  S
C677        C678   1.398       .  A
C677        H681   1.084       .  S
C678        O682   1.371       .  S
O680        H684   0.992       .  S
O682        H683   0.992       .  S
C685        C686   1.401       .  A
C686        C687   1.402       .  A
C686        H691   1.081       .  S
C687        C688   1.433       .  A
C687        O692   1.377       .  S
C689        C690   1.398       .  A
C689        H693   1.073       .  S
C690        O694   1.370       .  S
O692        H696   0.992       .  S
O694        H695   0.992       .  S
C697        C698   1.415       .  A
C698        C699   1.403       .  A
C698        H703   1.083       .  S
C699        C700   1.403       .  A
C699        O704   1.371       .  S
C701        C702   1.399       .  A
C701        H705   1.084       .  S
C702        O706   1.374       .  S
O704        H708   0.992       .  S
O706        H707   0.992       .  S
C709        C714   1.400       .  A
C710        C711   1.408       .  A
C710        H715   1.084       .  S
C711        O716   1.372       .  S
C712        C713   1.419       .  A
C713        C714   1.394       .  A
C713        H717   1.080       .  S
C714        O718   1.372       .  S
O716        H720   0.992       .  S
O718        H719   0.992       .  S
C721        C722   1.393       .  A
C721        C726   1.404       .  A
C722        C723   1.393       .  A
C722        H727   1.084       .  S
C723        C724   1.426       .  A
C724        C725   1.417       .  A
C725        C726   1.405       .  A
C725        H729   1.078       .  S
C726        O730   1.371       .  S
O728        H732   0.992       .  S
O730        H731   0.992       .  S
C733        C734   1.392       .  A
C733        C738   1.392       .  A
C734        C735   1.408       .  A
C734        H739   1.084       .  S
C735        C736   1.443       .  A
C735        O740   1.375       .  S
C736        C737   1.419       .  A
C737        C738   1.394       .  A
C737        H741   1.066       .  S
C738        O742   1.372       .  S
O740        H744   0.992       .  S
O742        H743   0.992       .  S
C745        C746   1.425       .  A
C745        C750   1.425       .  A
C746        C747   1.407       .  A
C746        H751   1.082       .  S
C747        C748   1.402       .  A
C747        O752   1.371       .  S
C748        C749   1.391       .  A
C749        C750   1.391       .  A
C749        H753   1.084       .  S
C750        O754   1.365       .  S
O752        H756   0.992       .  S
O754        H755   0.993       .  S
C757        C758   1.420       .  A
C757        C762   1.427       .  A
C758        C759   1.405       .  A
C758        H763   1.077       .  S
C759        C760   1.403       .  A
C759        O764   1.371       .  S
C760        C761   1.393       .  A
C761        C762   1.393       .  A
C761        H765   1.084       .  S
C762        O766   1.374       .  S
O764        H768   0.992       .  S
O766        H767   0.992       .  S
N769        N770   1.319       .  A
N769        C773   1.349       .  A
N769       Cu777   2.067       .  S
N770        C771   1.339       .  A
N770       Cu776   2.063       .  S
C771        C772   1.382       .  A
C771        H774   1.082       .  S
C772        C773   1.385       .  A
C772       C1016   1.474       .  S
C773        H775   1.082       .  S
Cu776       N779   2.064       .  S
Cu777       N787   2.070       .  S
Cu778       N780   2.094       .  S
Cu778       N786   2.095       .  S
N779        N780   1.323       .  A
N779        C783   1.343       .  A
N780        C781   1.350       .  A
C781        C782   1.386       .  A
C781        H784   1.082       .  S
C782        C783   1.377       .  A
C782        C853   1.465       .  S
C783        H785   1.082       .  S
N786        N787   1.325       .  A
N786        C790   1.352       .  A
N787        C788   1.339       .  A
C788        C789   1.379       .  A
C788        H791   1.082       .  S
C789        C790   1.387       .  A
C789        C875   1.474       .  S
C790        H792   1.082       .  S
N793        N794   1.318       .  A
N793        C797   1.350       .  A
N793       Cu801   2.062       .  S
N794        C795   1.337       .  A
N794       Cu800   2.058       .  S
C795        C796   1.383       .  A
C795        H798   1.082       .  S
C796        C797   1.386       .  A
C796       C1004   1.474       .  S
C797        H799   1.082       .  S
Cu800       N803   2.059       .  S
Cu801       N811   2.065       .  S
Cu802       N804   2.089       .  S
Cu802       N810   2.090       .  S
N803        N804   1.323       .  A
N803        C807   1.342       .  A
N804        C805   1.350       .  A
C805        C806   1.386       .  A
C805        H808   1.082       .  S
C806        C807   1.376       .  A
C806        C851   1.462       .  S
C807        H809   1.082       .  S
N810        N811   1.325       .  A
N810        C814   1.351       .  A
N811        C812   1.337       .  A
C812        C813   1.378       .  A
C812        H815   1.082       .  S
C813        C814   1.386       .  A
C813        C837   1.470       .  S
C814        H816   1.082       .  S
N817        N818   1.320       .  A
N817        C821   1.346       .  A
N817       Cu825   2.052       .  S
N818        C819   1.344       .  A
N818       Cu824   2.082       .  S
C819        C820   1.384       .  A
C819        H822   1.082       .  S
C820        C821   1.379       .  A
C820        C989   1.468       .  S
C821        H823   1.082       .  S
Cu824       N827   2.083       .  S
Cu825       N835   2.054       .  S
Cu826       N828   2.088       .  S
Cu826       N834   2.087       .  S
N827        N828   1.325       .  A
N827        C831   1.345       .  A
N828        C829   1.349       .  A
C829        C830   1.383       .  A
C829        H832   1.082       .  S
C830        C831   1.380       .  A
C830        C854   1.466       .  S
C831        H833   1.082       .  S
N834        N835   1.322       .  A
N834        C838   1.351       .  A
N835        C836   1.336       .  A
C836        C837   1.377       .  A
C836        H839   1.082       .  S
C837        C838   1.388       .  A
C838        H840   1.082       .  S
O841       Cu849   2.012       .  S
O841        C851   1.277       .  A
O842        C852   1.278       .  A
O843       Cu849   2.014       .  S
O843        C853   1.277       .  A
O844        C854   1.278       .  A
O845        C854   1.277       .  A
O846       Cu850   2.016       .  S
O846        C853   1.278       .  A
O847        C852   1.277       .  A
O848       Cu850   2.010       .  S
O848        C851   1.277       .  A
Cu849      Cu850   2.378       .  S
C852        C868   1.466       .  S
N855        N856   1.319       .  A
N855        C859   1.349       .  A
N855       Cu863   2.065       .  S
N856        C857   1.340       .  A
N856       Cu862   2.064       .  S
C857        C858   1.382       .  A
C857        H860   1.082       .  S
C858        C859   1.385       .  A
C858        C977   1.473       .  S
C859        H861   1.082       .  S
Cu862       N865   2.065       .  S
Cu863       N873   2.068       .  S
Cu864       N866   2.096       .  S
Cu864       N872   2.096       .  S
N865        N866   1.323       .  A
N865        C869   1.343       .  A
N866        C867   1.351       .  A
C867        C868   1.386       .  A
C867        H870   1.082       .  S
C868        C869   1.377       .  A
C869        H871   1.082       .  S
N872        N873   1.325       .  A
N872        C876   1.352       .  A
N873        C874   1.339       .  A
C874        C875   1.379       .  A
C874        H877   1.082       .  S
C875        C876   1.387       .  A
C876        H878   1.082       .  S
C879        C953   1.562       .  S
C879        C968   1.564       .  S
C879       C1013   1.570       .  S
C880        C932   1.568       .  S
C880        C944   1.590       .  S
C880       C1001   1.571       .  S
N881        N882   1.322       .  A
N881        C885   1.345       .  A
N882        C883   1.345       .  A
N882       Cu888   2.064       .  S
C883        C884   1.380       .  A
C883        H886   1.082       .  S
C884        C885   1.385       .  A
C884        C956   1.472       .  S
C885        H887   1.082       .  S
Cu888       N891   2.065       .  S
Cu889       N899   2.084       .  S
Cu890       N892   2.072       .  S
Cu890       N898   2.071       .  S
N891        C895   1.344   1_545  A
N892        C893   1.345   1_545  A
C893        C894   1.383       .  A
C893        H896   1.082       .  S
C894        C918   1.468       .  S
C895        H897   1.082       .  S
N898        N899   1.323       .  A
N898        C902   1.346       .  A
N899        C900   1.345       .  A
C900        C901   1.385       .  A
C900        H903   1.082       .  S
C901        C902   1.381       .  A
C901        C965   1.475       .  S
C902        H904   1.082       .  S
N905        N906   1.318       .  A
N905        C909   1.343       .  A
N905       Cu913   2.066       .  S
N906        C907   1.342       .  A
N906       Cu912   2.066       .  S
C907        C908   1.391       .  A
C907        H910   1.078       .  S
C908        C909   1.392       .  A
C908        C941   1.495       .  S
C909        H911   1.081       .  S
Cu912       N915   2.066       .  S
Cu914       N916   2.071       .  S
Cu914       N922   2.071       .  S
N915        C919   1.344       .  A
N916        C917   1.344       .  A
C917        H920   1.082       .  S
C918        C919   1.381       .  A
C919        H921   1.082       .  S
N922        N923   1.323       .  A
N922        C926   1.346       .  A
N923        C924   1.342       .  A
C924        C925   1.380       .  A
C924        H927   1.082       .  S
C925        C926   1.382       .  A
C925        C929   1.469       .  S
C926        H928   1.082       .  S
C929        C930   1.394       .  A
C930        C931   1.397       .  A
C930        H935   1.084       .  S
C931        C932   1.430       .  A
C931        O936   1.370       .  S
C933        C934   1.398       .  A
C933        H937   1.084       .  S
C934        O938   1.371       .  S
O936        H940   0.992       .  S
O938        H939   0.992       .  S
C941        C942   1.401       .  A
C942        C943   1.402       .  A
C942        H947   1.081       .  S
C943        C944   1.433       .  A
C943        O948   1.377       .  S
C945        C946   1.398       .  A
C945        H949   1.073       .  S
C946        O950   1.370       .  S
O948        H952   0.992       .  S
O950        H951   0.992       .  S
C953        C954   1.415       .  A
C954        C955   1.403       .  A
C954        H959   1.083       .  S
C955        C956   1.403       .  A
C955        O960   1.371       .  S
C957        C958   1.399       .  A
C957        H961   1.084       .  S
C958        O962   1.374       .  S
O960        H964   0.992       .  S
O962        H963   0.992       .  S
C965        C970   1.400       .  A
C966        C967   1.408       .  A
C966        H971   1.084       .  S
C967        O972   1.372       .  S
C968        C969   1.419       .  A
C969        C970   1.394       .  A
C969        H973   1.080       .  S
C970        O974   1.372       .  S
O972        H976   0.992       .  S
O974        H975   0.992       .  S
C977        C978   1.393       .  A
C977        C982   1.404       .  A
C978        C979   1.393       .  A
C978        H983   1.084       .  S
C979        C980   1.426       .  A
C980        C981   1.417       .  A
C981        C982   1.405       .  A
C981        H985   1.078       .  S
C982        O986   1.371       .  S
O984        H988   0.992       .  S
O986        H987   0.992       .  S
C989        C990   1.392       .  A
C989        C994   1.392       .  A
C990        C991   1.408       .  A
C990        H995   1.084       .  S
C991        C992   1.443       .  A
C991        O996   1.375       .  S
C992        C993   1.419       .  A
C993        C994   1.394       .  A
C993        H997   1.066       .  S
C994        O998   1.372       .  S
O996       H1000   0.992       .  S
O998        H999   0.992       .  S
C1001      C1002   1.425       .  A
C1001      C1006   1.425       .  A
C1002      C1003   1.407       .  A
C1002      H1007   1.082       .  S
C1003      C1004   1.402       .  A
C1003      O1008   1.371       .  S
C1004      C1005   1.391       .  A
C1005      C1006   1.391       .  A
C1005      H1009   1.084       .  S
C1006      O1010   1.365       .  S
O1008      H1012   0.992       .  S
O1010      H1011   0.993       .  S
C1013      C1014   1.420       .  A
C1013      C1018   1.427       .  A
C1014      C1015   1.405       .  A
C1014      H1019   1.077       .  S
C1015      C1016   1.403       .  A
C1015      O1020   1.371       .  S
C1016      C1017   1.393       .  A
C1017      C1018   1.393       .  A
C1017      H1021   1.084       .  S
C1018      O1022   1.374       .  S
O1020      H1024   0.992       .  S
O1022      H1023   0.992       .  S
