geometry optimzed in LAMMPS
_audit_creation_date              2020-11-30 
_audit_creation_method            'lammps2cif' 
_symmetry_space_group_name_H-M    'P1' 
_symmetry_Int_Tables_number       1 
_symmetry_cell_setting            triclinic 
loop_ 
_symmetry_equiv_pos_as_xyz 
  x,y,z 
_cell_length_a                    23.823302559393973 
_cell_length_b                    23.887327479723428 
_cell_length_c                    27.986420722079227 
_cell_angle_alpha                 90.40611449644143 
_cell_angle_beta                  90.55871392948899 
_cell_angle_gamma                 90.63878593947865 
loop_ 
_atom_site_label 
_atom_site_type_symbol 
_atom_site_fract_x 
_atom_site_fract_y 
_atom_site_fract_z 
_atom_site_charge 
C1          C  0.99477410  0.24956769  0.52702554    -0.00080
C2          C  0.49652792  0.24514794  0.47874200    -0.00080
C3          C  0.24704771  0.49629252  0.53256794    -0.00080
C4          C  0.25520972  0.99741073  0.48350892    -0.00080
C5          C  0.12523031  0.33323667  0.68026284     0.41810
N6          N  0.14435196  0.30319501  0.74990846     0.00700
C7          C  0.39046596  0.32956852  0.88299801    -0.07170
H8          H  0.40633739  0.30024595  0.68621072     0.06200
C9          C  0.32732403  0.12773066  0.70195156    -0.07520
Co10       Co  0.24749705  0.35173508  0.79796421     0.74180
N11         N  0.34782381  0.31674117  0.74374608    -0.26700
Co12       Co  0.35538821  0.25545594  0.79854732     0.74070
C13         C  0.37713510  0.15532199  0.68104136     0.41920
N14         N  0.19558507  0.14593632  0.74882084     0.00320
N15         N  0.35764022  0.19405030  0.74793791     0.00420
N16         N  0.32146958  0.39419819  0.88432868    -0.47550
H17         H  0.20370570  0.39047549  0.68099771     0.06180
N18         N  0.30790122  0.35422502  0.74719921     0.00710
N19         N  0.35840272  0.19242923  0.85160607     0.00450
C20         C  0.38204153  0.13443611  0.90653335     0.42050
N21         N  0.15344649  0.18111053  0.74692671    -0.26160
C22         C  0.17589546  0.38921101  0.88227110    -0.07080
N23         N  0.10913095  0.29750140  0.71378550    -0.47260
N24         N  0.39717946  0.18322186  0.88515229    -0.47490
C25         C  0.12613332  0.36929122  0.90635369     0.41830
N26         N  0.31199862  0.35571536  0.85050414     0.00700
N27         N  0.15504332  0.18431345  0.85184877    -0.26180
N28         N  0.18400598  0.34126997  0.74370639    -0.26670
N29         N  0.19500295  0.14647393  0.85255566     0.00340
H30         H  0.07934517  0.19634325  0.89161449     0.06230
H31         H  0.30810241  0.07546323  0.88886471     0.06260
N32         N  0.35212035  0.31798793  0.84932087    -0.26720
N33         N  0.31902149  0.15433145  0.74429194    -0.26330
N34         N  0.14862674  0.30912709  0.85261048     0.00700
C35         C  0.34499492  0.37406468  0.68000330     0.42100
C36         C  0.12330786  0.16848323  0.70664644    -0.07590
N37         N  0.32010937  0.15208413  0.85003646    -0.26330
H38         H  0.30157001  0.09428236  0.68703675     0.06250
N39         N  0.30534053  0.38868207  0.71091091    -0.47560
H40         H  0.08670271  0.19033432  0.69385993     0.06230
C41         C  0.13826321  0.12386285  0.90828956     0.41930
C42         C  0.17629018  0.36152724  0.69905924    -0.07080
Co43       Co  0.14911324  0.24439544  0.80088015     0.73820
N44         N  0.19632272  0.11009194  0.71325058    -0.47270
C45         C  0.37024969  0.37956064  0.90616950     0.42200
N46         N  0.11086993  0.31948158  0.88615818    -0.47260
Co47       Co  0.25741784  0.14837477  0.79912299     0.73890
C48         C  0.33137361  0.11396448  0.88325526    -0.07590
C49         C  0.37331222  0.32532990  0.70121977    -0.07150
N50         N  0.18653079  0.34964901  0.84977251    -0.26680
N51         N  0.39244534  0.19579066  0.71180330    -0.47440
H52         H  0.42886130  0.30682743  0.88910432     0.06210
C53         C  0.11770031  0.17361663  0.88562643    -0.07570
Cl54       Cl  0.25246843  0.25004141  0.79983127    -0.50570
C55         C  0.15240714  0.12047100  0.68479270     0.41960
H56         H  0.19886664  0.42822934  0.88685588     0.06170
N57         N  0.18625336  0.10846226  0.88623190    -0.47280
C58         C  0.11084156  0.19168811  0.30978259     0.41810
N59         N  0.14102279  0.21849999  0.24159456     0.00700
C60         C  0.38515745  0.14924555  0.11910060    -0.07170
H61         H  0.38324571  0.17269107  0.31837230     0.06200
C62         C  0.36024698  0.36622686  0.28723400    -0.07520
Co63       Co  0.23293768  0.15425917  0.19318631     0.74180
N64         N  0.33268251  0.17050071  0.25348579    -0.26700
Co65       Co  0.35670884  0.23081337  0.19785001     0.74070
C66         C  0.39610568  0.32736170  0.31433375     0.41920
N67         N  0.22417186  0.37210572  0.24207630     0.00320
N68         N  0.36861940  0.29043344  0.24780446     0.00420
N69         N  0.30637027  0.09577166  0.11252589    -0.47550
H70         H  0.17327888  0.12126021  0.31076883     0.06180
N71         N  0.28758206  0.14010687  0.24432894     0.00710
N72         N  0.37341289  0.29479247  0.14407418     0.00450
C73         C  0.40989702  0.35438625  0.09485855     0.42050
N74         N  0.18566698  0.33380800  0.25122008    -0.26160
C75         C  0.15432862  0.12775475  0.11300524    -0.07080
N76         N  0.10527803  0.22945925  0.27561308    -0.47260
N77         N  0.41672956  0.30241934  0.11455288    -0.47490
C78         C  0.10423172  0.15085434  0.09289854     0.41830
N79         N  0.29891757  0.13851653  0.14288447     0.00700
N80         N  0.17118372  0.33684773  0.14331929    -0.26180
N81         N  0.17043476  0.17308105  0.24756398    -0.26670
N82         N  0.21635087  0.36898477  0.14017185     0.00340
H83         H  0.08772659  0.33980254  0.11377133     0.06230
H84         H  0.34284993  0.41921065  0.10947761     0.06260
N85         N  0.34506486  0.16946527  0.14700857    -0.26720
N86         N  0.34285401  0.33882029  0.24717386    -0.26330
N87         N  0.14231597  0.21260443  0.14009970     0.00700
C88         C  0.30272388  0.11584654  0.31677042     0.42100
C89         C  0.18334842  0.33247083  0.29998284    -0.07590
N90         N  0.34040158  0.33902889  0.14319565    -0.26330
H91         H  0.35014115  0.40827336  0.29589770     0.06250
N92         N  0.27058448  0.10792271  0.27881858    -0.47560
H93         H  0.16481611  0.29938151  0.32013241     0.06230
C94         C  0.15340627  0.40573774  0.09420249     0.41930
C95         C  0.15448294  0.15386622  0.29129396    -0.07080
Co96       Co  0.15895558  0.27628421  0.19350308     0.73820
N97         N  0.24370285  0.39927013  0.27976740    -0.47270
C98         C  0.36030505  0.10039743  0.09652938     0.42200
N99         N  0.09853268  0.20400734  0.11063945    -0.47260
Co100      Co  0.28118414  0.35564014  0.19198925     0.73890
C101        C  0.35953144  0.37753862  0.11350237    -0.07590
C102        C  0.34703351  0.15655289  0.29941983    -0.07150
N103        N  0.17440420  0.16784004  0.14163558    -0.26680
N104        N  0.40021422  0.28244217  0.28584555    -0.47440
H105        H  0.42796668  0.16471355  0.11771848     0.06210
C106        C  0.13027188  0.35608440  0.11541808    -0.07570
Cl107      Cl  0.25754601  0.25407444  0.19294239    -0.50570
C108        C  0.22174291  0.37708272  0.31882566     0.41960
H109        H  0.16977304  0.08538513  0.11096757     0.06170
N110        N  0.20735744  0.41187313  0.11071636    -0.47280
O111        O  0.43773214  0.44011933  0.05688082    -0.80780
O112        O  0.07240818  0.06414707  0.05724530    -0.80810
O113        O  0.06683683  0.43424438  0.05693471    -0.80810
O114        O  0.44493338  0.07157482  0.05731684    -0.80760
O115        O  0.14655234  0.47857830  0.03683294    -0.80880
O116        O  0.36436389  0.02736476  0.03765658    -0.80800
O117        O  0.03102056  0.14411758  0.03510618    -0.80780
O118        O  0.48072818  0.36042751  0.03560625    -0.80820
C119        C  0.44507525  0.38579269  0.06083300     1.08910
C120        C  0.06719287  0.11880119  0.06008444     1.08790
C121        C  0.12138296  0.44150312  0.06093846     1.08930
C122        C  0.39059087  0.06443835  0.06201169     1.08810
O123        O  0.40247958  0.05235553  0.95010490    -0.80780
O124        O  0.10620603  0.45220021  0.94954021    -0.80860
O125        O  0.45322866  0.40083421  0.94923740    -0.80790
O126        O  0.05519278  0.10196102  0.94896544    -0.80770
O127        O  0.12903571  0.05427494  0.96685427    -0.80830
O128        O  0.38001658  0.45015650  0.96552116    -0.80790
O129        O  0.45395193  0.12568311  0.96478543    -0.80750
O130        O  0.05563794  0.37878324  0.96457244    -0.80820
Co131      Co  0.42737336  0.00203406  0.00331149     1.51530
Co132      Co  0.08228954  0.00242233  0.00319775     1.51690
Co133      Co  0.00462073  0.42463503  0.00260580     1.51570
Co134      Co  0.00534988  0.07964773  0.00252237     1.51470
O135        O  0.00442798  0.00189887  0.97436132    -1.42720
C136        C  0.41443299  0.10304112  0.94219754     1.08840
C137        C  0.09445296  0.40129607  0.94185629     1.08930
C138        C  0.40223440  0.41189034  0.94204349     1.08860
C139        C  0.10639827  0.09167665  0.94299159     1.08840
C140        C  0.24589146  0.39544304  0.45359642    -0.09800
C141        C  0.27647987  0.44640183  0.45500158     0.06400
C142        C  0.30803778  0.45628208  0.41380270    -0.03570
C143        C  0.28753148  0.43589962  0.36992415    -0.08020
C144        C  0.24591461  0.39305624  0.36711339     0.05510
C145        C  0.23220868  0.36761110  0.41050317    -0.03040
Br146      Br  0.20422305  0.29267935  0.41432312    -0.02740
H147        H  0.23800013  0.37319705  0.48512936     0.09420
H148        H  0.30160029  0.95758015  0.33865942     0.07440
Br149      Br  0.37213319  0.00523529  0.41531948    -0.03170
C150        C  0.29660058  0.12034076  0.40777503    -0.09800
C151        C  0.27878512  0.09717391  0.36404013     0.06400
C152        C  0.23392372  0.05661830  0.36611777    -0.03570
C153        C  0.21473035  0.03716352  0.41019417    -0.08020
C154        C  0.24644988  0.04707829  0.45178953     0.05510
C155        C  0.28571414  0.09211538  0.45095670    -0.03040
Br156      Br  0.33014491  0.11112633  0.50617554    -0.02740
H157        H  0.32104896  0.15816586  0.40807058     0.09420
H158        H  0.18332862  0.00395860  0.41030342     0.07440
Br159      Br  0.20025781  0.01750374  0.31194311    -0.03170
C160        C  0.33376486  0.47293301  0.57871510    -0.09800
C161        C  0.28241501  0.45454132  0.55874452     0.06400
C162        C  0.26055616  0.40203109  0.57246540    -0.03570
C163        C  0.28944258  0.36983302  0.60612808    -0.08020
C164        C  0.33736701  0.39100577  0.62988678     0.05510
C165        C  0.35988215  0.44260306  0.61523837    -0.03040
Br166      Br  0.42153100  0.47641678  0.64939867    -0.02740
H167        H  0.35030140  0.51386741  0.56981986     0.09420
H168        H  0.26938010  0.33271852  0.61980441     0.07440
Br169      Br  0.18302056  0.38343688  0.55936531    -0.03170
C170        C  0.19277803  0.00603682  0.60991486    -0.09800
C171        C  0.20674697  0.03115456  0.56523291     0.06400
C172        C  0.18089379  0.08512505  0.55822441    -0.03570
C173        C  0.15133386  0.11130639  0.59586267    -0.08020
C174        C  0.14567588  0.08686628  0.64044278     0.05510
C175        C  0.15984501  0.03109596  0.64450429    -0.03040
Br176      Br  0.14284232  0.49140879  0.70223524    -0.02740
H177        H  0.20892060  0.46691198  0.62141802     0.09420
H178        H  0.13526918  0.15267167  0.59147997     0.07440
Br179      Br  0.18393067  0.13403694  0.50474975    -0.03170
C180        C  0.45492104  0.33064517  0.44053787    -0.09800
C181        C  0.45170962  0.27237304  0.44940123     0.06400
C182        C  0.41808503  0.23937357  0.41897782    -0.03570
C183        C  0.38614936  0.26491219  0.38330537    -0.08020
C184        C  0.40100795  0.31857060  0.36693143     0.05510
C185        C  0.43512804  0.35227185  0.39684081    -0.03040
Br186      Br  0.46831144  0.42022037  0.37399510    -0.02740
H187        H  0.48275817  0.35663087  0.46216412     0.09420
H188        H  0.35696899  0.23991500  0.36262779     0.07440
Br189      Br  0.42881746  0.15997802  0.41562469    -0.03170
C190        C  0.06609546  0.27406256  0.41951761    -0.09800
C191        C  0.04895066  0.23260945  0.45115717     0.06400
C192        C  0.06393037  0.17665911  0.43997250    -0.03570
C193        C  0.08917405  0.16395398  0.39553018    -0.08020
C194        C  0.09231965  0.20493821  0.35963723     0.05510
C195        C  0.07605919  0.26022015  0.37215987    -0.03040
Br196      Br  0.05339282  0.31743861  0.32788909    -0.02740
H197        H  0.05923749  0.31750553  0.42818340     0.09420
H198        H  0.10044060  0.12117465  0.38734629     0.07440
Br199      Br  0.54327160  0.11553062  0.48067262    -0.03170
C200        C  0.48232818  0.17234653  0.58511024    -0.09800
C201        C  0.45643407  0.21273879  0.55613439     0.06400
C202        C  0.39817750  0.22200384  0.56272850    -0.03570
C203        C  0.36958165  0.19504832  0.60009227    -0.08020
C204        C  0.39748774  0.15900986  0.63152665     0.05510
C205        C  0.45392451  0.14655804  0.62265726    -0.03040
Br206      Br  0.49680659  0.10203709  0.66613507    -0.02740
H207        H  0.52655104  0.16391566  0.58113798     0.09420
H208        H  0.32661072  0.20651314  0.60740981     0.07440
Br209      Br  0.35473729  0.27351242  0.52595628    -0.03170
C210        C  0.09081245  0.25786295  0.56534744    -0.09800
C211        C  0.03858265  0.28152429  0.55468309     0.06400
C212        C  0.02325644  0.33082750  0.57887682    -0.03570
C213        C  0.05543975  0.35129203  0.61728363    -0.08020
C214        C  0.10439348  0.32411334  0.63133614     0.05510
C215        C  0.12336686  0.27831463  0.60402034    -0.03040
Br216      Br  0.19413451  0.24446070  0.61867580    -0.02740
H217        H  0.10439947  0.22179771  0.54530640     0.09420
H218        H  0.04042127  0.38650850  0.63796835     0.07440
Br219      Br  0.45725392  0.37045850  0.56193034    -0.03170
C220        C  0.99477441  0.74956844  0.52702533    -0.00080
C221        C  0.49652761  0.74515039  0.47874152    -0.00080
C222        C  0.24704731  0.99629239  0.53256793    -0.00080
C223        C  0.25521044  0.49741097  0.48350897    -0.00080
C224        C  0.12523018  0.83323684  0.68026316     0.41810
N225        N  0.14435197  0.80319507  0.74990870     0.00700
C226        C  0.39046620  0.82956850  0.88299801    -0.07170
H227        H  0.40633750  0.80024643  0.68621073     0.06200
C228        C  0.32732392  0.62773127  0.70195104    -0.07520
Co229      Co  0.24749715  0.85173509  0.79796437     0.74180
N230        N  0.34782389  0.81674141  0.74374611    -0.26700
Co231      Co  0.35538837  0.75545604  0.79854723     0.74070
C232        C  0.37713488  0.65532278  0.68104080     0.41920
N233        N  0.19558518  0.64593637  0.74882072     0.00320
N234        N  0.35764032  0.69405056  0.74793766     0.00420
N235        N  0.32146976  0.89419811  0.88432879    -0.47550
H236        H  0.20370565  0.89047554  0.68099794     0.06180
N237        N  0.30790124  0.85422519  0.74719931     0.00710
N238        N  0.35840296  0.69242916  0.85160584     0.00450
C239        C  0.38204178  0.63443594  0.90653304     0.42050
N240        N  0.15344657  0.68111056  0.74692669    -0.26160
C241        C  0.17589557  0.88921100  0.88227124    -0.07080
N242        N  0.10913088  0.79750152  0.71378581    -0.47260
N243        N  0.39717969  0.68322175  0.88515206    -0.47490
C244        C  0.12613339  0.86929126  0.90635381     0.41830
N245        N  0.31199879  0.85571530  0.85050424     0.00700
N246        N  0.15504361  0.68431329  0.85184878    -0.26180
N247        N  0.18400599  0.84127003  0.74370661    -0.26670
N248        N  0.19500322  0.64647375  0.85255554     0.00340
H249        H  0.07934553  0.69634302  0.89161460     0.06230
H250        H  0.30810267  0.57546308  0.88886433     0.06260
N251        N  0.35212055  0.81798791  0.84932090    -0.26720
N252        N  0.31902157  0.65433174  0.74429160    -0.26330
N253        N  0.14862691  0.80912700  0.85261070     0.00700
C254        C  0.34499491  0.87406505  0.68000342     0.42100
C255        C  0.12330789  0.66848327  0.70664644    -0.07590
N256        N  0.32010964  0.65208404  0.85003616    -0.26330
H257        H  0.30156982  0.59428311  0.68703611     0.06250
N258        N  0.30534050  0.88868231  0.71091107    -0.47560
H259        H  0.08670270  0.69033433  0.69385999     0.06230
C260        C  0.13826355  0.62386255  0.90828947     0.41930
C261        C  0.17629012  0.86152732  0.69905950    -0.07080
Co262      Co  0.14911339  0.74439539  0.80088027     0.73820
N263        N  0.19632279  0.61009201  0.71325044    -0.47270
C264        C  0.37024992  0.87956060  0.90616954     0.42200
N265        N  0.11087004  0.81948157  0.88615835    -0.47260
Co266      Co  0.25741803  0.64837478  0.79912277     0.73890
C267        C  0.33137388  0.61396433  0.88325492    -0.07590
C268        C  0.37331229  0.82533028  0.70121982    -0.07150
N269        N  0.18653096  0.84964893  0.84977272    -0.26680
N270        N  0.39244526  0.69579121  0.71180292    -0.47440
H271        H  0.42886158  0.80682746  0.88910424     0.06210
C272        C  0.11770065  0.67361640  0.88562646    -0.07570
Cl273      Cl  0.25246858  0.75004143  0.79983127    -0.50570
C274        C  0.15240718  0.62047106  0.68479261     0.41960
H275        H  0.19886670  0.92822937  0.88685596     0.06170
N276        N  0.18625366  0.60846199  0.88623173    -0.47280
C277        C  0.11084160  0.69168842  0.30978239     0.41810
N278        N  0.14102276  0.71850003  0.24159426     0.00700
C279        C  0.38515763  0.64924568  0.11910058    -0.07170
H280        H  0.38324577  0.67269177  0.31837236     0.06200
C281        C  0.36024689  0.86622761  0.28723340    -0.07520
Co282      Co  0.23293787  0.65425931  0.19318628     0.74180
N283        N  0.33268266  0.67050111  0.25348579    -0.26700
Co284      Co  0.35670891  0.73081366  0.19784991     0.74070
C285        C  0.39610544  0.82736258  0.31433339     0.41920
N286        N  0.22417178  0.87210584  0.24207601     0.00320
N287        N  0.36861932  0.79043390  0.24780424     0.00420
N288        N  0.30637046  0.59577176  0.11252592    -0.47550
H289        H  0.17327933  0.62126088  0.31076901     0.06180
N290        N  0.28758225  0.64010719  0.24432896     0.00710
N291        N  0.37341289  0.79479266  0.14407398     0.00450
C292        C  0.40989706  0.85438641  0.09485836     0.42050
N293        N  0.18566695  0.83380805  0.25121975    -0.26160
C294        C  0.15432884  0.62775467  0.11300517    -0.07080
N295        N  0.10527791  0.72945932  0.27561271    -0.47260
N296        N  0.41672964  0.80241956  0.11455278    -0.47490
C297        C  0.10423197  0.65085423  0.09289838     0.41830
N298        N  0.29891777  0.63851664  0.14288448     0.00700
N299        N  0.17118367  0.83684775  0.14331896    -0.26180
N300        N  0.17043491  0.67308124  0.24756388    -0.26670
N301        N  0.21635080  0.86898482  0.14017152     0.00340
H302        H  0.08772651  0.83980258  0.11377108     0.06230
H303        H  0.34284984  0.91921074  0.10947721     0.06260
N304        N  0.34506505  0.66946541  0.14700856    -0.26720
N305        N  0.34285394  0.83882075  0.24717342    -0.26330
N306        N  0.14231615  0.71260440  0.14009947     0.00700
C307        C  0.30272410  0.61584702  0.31677048     0.42100
C308        C  0.18334850  0.83247068  0.29998250    -0.07590
N309        N  0.34040150  0.83902902  0.14319532    -0.26330
H310        H  0.35014110  0.90827421  0.29589681     0.06250
N311        N  0.27058472  0.60792306  0.27881864    -0.47560
H312        H  0.16481626  0.79938128  0.32013202     0.06230
C313        C  0.15340616  0.90573783  0.09420226     0.41930
C314        C  0.15448319  0.65386663  0.29129396    -0.07080
Co315      Co  0.15895560  0.77628423  0.19350277     0.73820
N316        N  0.24370284  0.89927010  0.27976717    -0.47270
C317        C  0.36030523  0.60039754  0.09652938     0.42200
N318        N  0.09853290  0.70400726  0.11063919    -0.47260
Co319      Co  0.28118405  0.85564032  0.19198889     0.73890
C320        C  0.35953137  0.87753873  0.11350202    -0.07590
C321        C  0.34703365  0.65655344  0.29941986    -0.07150
N322        N  0.17440438  0.66784001  0.14163547    -0.26680
N323        N  0.40021406  0.78244285  0.28584541    -0.47440
H324        H  0.42796684  0.66471372  0.11771840     0.06210
C325        C  0.13027180  0.85608443  0.11541779    -0.07570
Cl326      Cl  0.25754606  0.75407460  0.19294218    -0.50570
C327        C  0.22174301  0.87708249  0.31882539     0.41960
H328        H  0.16977326  0.58538504  0.11096757     0.06170
N329        N  0.20735732  0.91187323  0.11071610    -0.47280
O330        O  0.43773236  0.94011953  0.05688084    -0.80780
O331        O  0.07240835  0.56414693  0.05724526    -0.80810
O332        O  0.06683667  0.93424476  0.05693475    -0.80810
O333        O  0.44493343  0.57157508  0.05731659    -0.80760
O334        O  0.14655221  0.97857850  0.03683284    -0.80880
O335        O  0.36436394  0.52736481  0.03765662    -0.80800
O336        O  0.03102090  0.64411746  0.03510597    -0.80780
O337        O  0.48072845  0.86042776  0.03560628    -0.80820
C338        C  0.44507543  0.88579290  0.06083297     1.08910
C339        C  0.06719313  0.61880107  0.06008430     1.08790
C340        C  0.12138282  0.94150332  0.06093836     1.08930
C341        C  0.39059097  0.56443847  0.06201162     1.08810
O342        O  0.40247955  0.55235548  0.95010489    -0.80780
O343        O  0.10620588  0.95220041  0.94954012    -0.80860
O344        O  0.45322892  0.90083431  0.94923738    -0.80790
O345        O  0.05519309  0.60196070  0.94896530    -0.80770
O346        O  0.12903600  0.55427467  0.96685427    -0.80830
O347        O  0.38001676  0.95015647  0.96552117    -0.80790
O348        O  0.45395226  0.62568291  0.96478501    -0.80750
O349        O  0.05563801  0.87878338  0.96457256    -0.80820
Co350      Co  0.42737331  0.50203396  0.00331150     1.51530
Co351      Co  0.08228971  0.50242215  0.00319778     1.51690
Co352      Co  0.00462069  0.92463518  0.00260581     1.51570
Co353      Co  0.00535014  0.57964760  0.00252225     1.51470
O354        O  0.00442817  0.50189870  0.97436131    -1.42720
C355        C  0.41443316  0.60304098  0.94219731     1.08840
C356        C  0.09445295  0.90129621  0.94185632     1.08930
C357        C  0.40223463  0.91189034  0.94204350     1.08860
C358        C  0.10639859  0.59167634  0.94299150     1.08840
C359        C  0.24589045  0.89544288  0.45359617    -0.09800
C360        C  0.27647905  0.94640156  0.45500153     0.06400
C361        C  0.30803736  0.95628175  0.41380287    -0.03570
C362        C  0.28753148  0.93589925  0.36992419    -0.08020
C363        C  0.24591463  0.89305586  0.36711318     0.05510
C364        C  0.23220833  0.86761076  0.41050288    -0.03040
Br365      Br  0.20422308  0.79267888  0.41432273    -0.02740
H366        H  0.23799792  0.87319734  0.48512906     0.09420
H367        H  0.30160010  0.45758046  0.33865927     0.07440
Br368      Br  0.37213364  0.50523560  0.41531883    -0.03170
C369        C  0.29660110  0.62034107  0.40777509    -0.09800
C370        C  0.27878544  0.59717435  0.36404021     0.06400
C371        C  0.23392404  0.55661874  0.36611792    -0.03570
C372        C  0.21473086  0.53716387  0.41019435    -0.08020
C373        C  0.24645056  0.54707856  0.45178963     0.05510
C374        C  0.28571486  0.59211560  0.45095675    -0.03040
Br375      Br  0.33014591  0.61112637  0.50617549    -0.02740
H376        H  0.32104947  0.65816617  0.40807061     0.09420
H377        H  0.18332912  0.50395895  0.41030365     0.07440
Br378      Br  0.20025790  0.51750426  0.31194330    -0.03170
C379        C  0.33376456  0.97293318  0.57871503    -0.09800
C380        C  0.28241480  0.95454128  0.55874444     0.06400
C381        C  0.26055607  0.90203105  0.57246545    -0.03570
C382        C  0.28944256  0.86983315  0.60612821    -0.08020
C383        C  0.33736691  0.89100610  0.62988690     0.05510
C384        C  0.35988186  0.94260345  0.61523843    -0.03040
Br385      Br  0.42153041  0.97641754  0.64939883    -0.02740
H386        H  0.35030097  0.01386762  0.56981975     0.09420
H387        H  0.26938016  0.83271865  0.61980462     0.07440
Br388      Br  0.18302038  0.88343692  0.55936589    -0.03170
C389        C  0.19277796  0.50603685  0.60991466    -0.09800
C390        C  0.20674725  0.53115469  0.56523282     0.06400
C391        C  0.18089426  0.58512529  0.55822436    -0.03570
C392        C  0.15133420  0.61130659  0.59586256    -0.08020
C393        C  0.14567597  0.58686641  0.64044262     0.05510
C394        C  0.15984497  0.53109604  0.64450408    -0.03040
Br395      Br  0.14284259  0.99140879  0.70223554    -0.02740
H396        H  0.20892094  0.96691209  0.62141831     0.09420
H397        H  0.13526960  0.65267189  0.59147987     0.07440
Br398      Br  0.18393155  0.63403737  0.50474983    -0.03170
C399        C  0.45491958  0.83064715  0.44053785    -0.09800
C400        C  0.45170859  0.77237502  0.44940131     0.06400
C401        C  0.41808438  0.73937519  0.41897789    -0.03570
C402        C  0.38614876  0.76491345  0.38330522    -0.08020
C403        C  0.40100731  0.81857181  0.36693111     0.05510
C404        C  0.43512705  0.85227339  0.39684049    -0.03040
Br405      Br  0.46831116  0.92022138  0.37399430    -0.02740
H406        H  0.48275664  0.85663303  0.46216402     0.09420
H407        H  0.35696873  0.73991596  0.36262755     0.07440
Br408      Br  0.42881781  0.65997973  0.41562482    -0.03170
C409        C  0.06609557  0.77406354  0.41951706    -0.09800
C410        C  0.04895094  0.73261061  0.45115687     0.06400
C411        C  0.06393074  0.67666023  0.43997244    -0.03570
C412        C  0.08917433  0.66395486  0.39553014    -0.08020
C413        C  0.09231974  0.70493884  0.35963698     0.05510
C414        C  0.07605920  0.76022082  0.37215937    -0.03040
Br415      Br  0.05339284  0.81743904  0.32788834    -0.02740
H416        H  0.05923764  0.81750655  0.42818266     0.09420
H417        H  0.10044097  0.62117550  0.38734644     0.07440
Br418      Br  0.54327323  0.61553387  0.48067321    -0.03170
C419        C  0.48232771  0.67234750  0.58510949    -0.09800
C420        C  0.45643372  0.71273998  0.55613377     0.06400
C421        C  0.39817720  0.72200528  0.56272811    -0.03570
C422        C  0.36958138  0.69504973  0.60009189    -0.08020
C423        C  0.39748739  0.65901094  0.63152604     0.05510
C424        C  0.45392405  0.64655892  0.62265646    -0.03040
Br425      Br  0.49680608  0.60203750  0.66613395    -0.02740
H426        H  0.52655056  0.66391652  0.58113721     0.09420
H427        H  0.32661054  0.70651472  0.60740960     0.07440
Br428      Br  0.35473697  0.77351424  0.52595631    -0.03170
C429        C  0.09081257  0.75786321  0.56534764    -0.09800
C430        C  0.03858296  0.78152479  0.55468306     0.06400
C431        C  0.02325682  0.83082807  0.57887671    -0.03570
C432        C  0.05543988  0.85129237  0.61728375    -0.08020
C433        C  0.10439339  0.82411345  0.63133647     0.05510
C434        C  0.12336681  0.77831473  0.60402071    -0.03040
Br435      Br  0.19413446  0.74446085  0.61867629    -0.02740
H436        H  0.10439961  0.72179798  0.54530659     0.09420
H437        H  0.04042143  0.88650892  0.63796839     0.07440
Br438      Br  0.45725403  0.87045963  0.56193041    -0.03170
C439        C  0.49477443  0.24956744  0.52702568    -0.00080
C440        C  0.99652734  0.24514873  0.47874182    -0.00080
C441        C  0.74704686  0.49629198  0.53256752    -0.00080
C442        C  0.75520976  0.99741056  0.48350894    -0.00080
C443        C  0.62523080  0.33323712  0.68026251     0.41810
N444        N  0.64435206  0.30319521  0.74990817     0.00700
C445        C  0.89046598  0.32956850  0.88299800    -0.07170
H446        H  0.90633679  0.30024579  0.68621040     0.06200
C447        C  0.82732391  0.12773079  0.70195145    -0.07520
Co448      Co  0.74749703  0.35173518  0.79796428     0.74180
N449        N  0.84782368  0.31674123  0.74374607    -0.26700
Co450      Co  0.85538814  0.25545598  0.79854729     0.74070
C451        C  0.87713499  0.15532211  0.68104126     0.41920
N452        N  0.69558504  0.14593647  0.74882070     0.00320
N453        N  0.85764016  0.19405037  0.74793785     0.00420
N454        N  0.82146959  0.39419816  0.88432879    -0.47550
H455        H  0.70370605  0.39047605  0.68099788     0.06180
N456        N  0.80790119  0.35422517  0.74719935     0.00710
N457        N  0.85840264  0.19242922  0.85160600     0.00450
C458        C  0.88204142  0.13443605  0.90653325     0.42050
N459        N  0.65344645  0.18111066  0.74692651    -0.26160
C460        C  0.67589537  0.38921097  0.88227113    -0.07080
N461        N  0.60913129  0.29750167  0.71378503    -0.47260
N462        N  0.89717937  0.18322181  0.88515222    -0.47490
C463        C  0.62613317  0.36929118  0.90635362     0.41830
N464        N  0.81199858  0.35571534  0.85050424     0.00700
N465        N  0.65504316  0.18431352  0.85184856    -0.26180
N466        N  0.68400608  0.34127023  0.74370634    -0.26670
N467        N  0.69500284  0.14647404  0.85255549     0.00340
H468        H  0.57934502  0.19634328  0.89161432     0.06230
H469        H  0.80810227  0.07546322  0.88886457     0.06260
N470        N  0.85212032  0.31798793  0.84932090    -0.26720
N471        N  0.81902141  0.15433155  0.74429185    -0.26330
N472        N  0.64862658  0.30912716  0.85261031     0.00700
C473        C  0.84499441  0.37406462  0.68000325     0.42100
C474        C  0.62330784  0.16848328  0.70664625    -0.07590
N475        N  0.82010927  0.15208414  0.85003636    -0.26330
H476        H  0.80156987  0.09428253  0.68703661     0.06250
N477        N  0.80534032  0.38868217  0.71091105    -0.47560
H478        H  0.58670268  0.19033433  0.69385971     0.06230
C479        C  0.63826314  0.12386294  0.90828941     0.41930
C480        C  0.67629050  0.36152767  0.69905922    -0.07080
Co481      Co  0.64911315  0.24439556  0.80087992     0.73820
N482        N  0.69632272  0.11009204  0.71325050    -0.47270
C483        C  0.87024974  0.37956061  0.90616954     0.42200
N484        N  0.61086973  0.31948161  0.88615800    -0.47260
Co485      Co  0.75741775  0.14837487  0.79912287     0.73890
C486        C  0.83137348  0.11396446  0.88325515    -0.07590
C487        C  0.87331180  0.32532984  0.70121961    -0.07150
N488        N  0.68653070  0.34964904  0.84977248    -0.26680
N489        N  0.89244527  0.19579074  0.71180323    -0.47440
H490        H  0.92886134  0.30682742  0.88910424     0.06210
C491        C  0.61770017  0.17361668  0.88562624    -0.07570
Cl492      Cl  0.75246835  0.25004150  0.79983121    -0.50570
C493        C  0.65240715  0.12047100  0.68479260     0.41960
H494        H  0.69886661  0.42822925  0.88685603     0.06170
N495        N  0.68625330  0.10846240  0.88623176    -0.47280
C496        C  0.61084214  0.19168813  0.30978311     0.41810
N497        N  0.64102302  0.21850017  0.24159501     0.00700
C498        C  0.88515743  0.14924571  0.11910063    -0.07170
H499        H  0.88324592  0.17269140  0.31837239     0.06200
C500        C  0.86024655  0.36622717  0.28723411    -0.07520
Co501      Co  0.73293778  0.15425932  0.19318651     0.74180
N502        N  0.83268269  0.17050098  0.25348589    -0.26700
Co503      Co  0.85670886  0.23081364  0.19785007     0.74070
C504        C  0.89610522  0.32736207  0.31433389     0.41920
N505        N  0.72417164  0.37210616  0.24207637     0.00320
N506        N  0.86861934  0.29043382  0.24780449     0.00420
N507        N  0.80637024  0.09577182  0.11252601    -0.47550
H508        H  0.67327924  0.12126006  0.31076893     0.06180
N509        N  0.78758227  0.14010709  0.24432906     0.00710
N510        N  0.87341280  0.29479268  0.14407421     0.00450
C511        C  0.90989694  0.35438638  0.09485853     0.42050
N512        N  0.68566710  0.33380818  0.25122034    -0.26160
C513        C  0.65432865  0.12775483  0.11300551    -0.07080
N514        N  0.60527848  0.22945944  0.27561373    -0.47260
N515        N  0.91672946  0.30241951  0.11455292    -0.47490
C516        C  0.60423172  0.15085435  0.09289881     0.41830
N517        N  0.79891758  0.13851671  0.14288458     0.00700
N518        N  0.67118357  0.33684782  0.14331949    -0.26180
N519        N  0.67043497  0.17308117  0.24756426    -0.26670
N520        N  0.71635072  0.36898485  0.14017193     0.00340
H521        H  0.58772642  0.33980254  0.11377154     0.06230
H522        H  0.84284985  0.41921081  0.10947753     0.06260
N523        N  0.84506488  0.16946545  0.14700865    -0.26720
N524        N  0.84285383  0.33882062  0.24717389    -0.26330
N525        N  0.64231589  0.21260446  0.14010004     0.00700
C526        C  0.80272420  0.11584669  0.31677051     0.42100
C527        C  0.68334898  0.33247094  0.29998312    -0.07590
N528        N  0.84040148  0.33902909  0.14319567    -0.26330
H529        H  0.85014039  0.40827354  0.29589797     0.06250
N530        N  0.77058479  0.10792286  0.27881868    -0.47560
H531        H  0.66481730  0.29938134  0.32013278     0.06230
C532        C  0.65340610  0.40573770  0.09420253     0.41930
C533        C  0.65448331  0.15386620  0.29129423    -0.07080
Co534      Co  0.65895559  0.27628432  0.19350339     0.73820
N535        N  0.74370254  0.39927082  0.27976739    -0.47270
C536        C  0.86030499  0.10039757  0.09652943     0.42200
N537        N  0.59853261  0.20400734  0.11063976    -0.47260
Co538      Co  0.78118399  0.35564039  0.19198930     0.73890
C539        C  0.85953134  0.37753878  0.11350233    -0.07590
C540        C  0.84703374  0.15655316  0.29941992    -0.07150
N541        N  0.67440418  0.16784011  0.14163588    -0.26680
N542        N  0.90021401  0.28244257  0.28584568    -0.47440
H543        H  0.92796666  0.16471371  0.11771845     0.06210
C544        C  0.63027171  0.35608441  0.11541825    -0.07570
Cl545      Cl  0.75754600  0.25407464  0.19294253    -0.50570
C546        C  0.72174299  0.37708332  0.31882580     0.41960
H547        H  0.66977316  0.08538524  0.11096778     0.06170
N548        N  0.70735728  0.41187312  0.11071636    -0.47280
O549        O  0.93773228  0.44011943  0.05688088    -0.80780
O550        O  0.57240859  0.06414711  0.05724522    -0.80810
O551        O  0.56683669  0.43424430  0.05693470    -0.80810
O552        O  0.94493325  0.07157494  0.05731679    -0.80760
O553        O  0.64655221  0.47857819  0.03683293    -0.80880
O554        O  0.86436377  0.02736480  0.03765665    -0.80800
O555        O  0.53102065  0.14411756  0.03510635    -0.80780
O556        O  0.98072822  0.36042758  0.03560631    -0.80820
C557        C  0.94507527  0.38579279  0.06083303     1.08910
C558        C  0.56719302  0.11880121  0.06008455     1.08790
C559        C  0.62138281  0.44150303  0.06093846     1.08930
C560        C  0.89059076  0.06443844  0.06201170     1.08810
O561        O  0.90247938  0.05235550  0.95010491    -0.80780
O562        O  0.60620593  0.45220012  0.94954020    -0.80860
O563        O  0.95322878  0.40083422  0.94923740    -0.80790
O564        O  0.55519288  0.10196119  0.94896555    -0.80770
O565        O  0.62903579  0.05427489  0.96685403    -0.80830
O566        O  0.88001667  0.45015644  0.96552122    -0.80790
O567        O  0.95395184  0.12568305  0.96478530    -0.80750
O568        O  0.55563779  0.37878319  0.96457238    -0.80820
Co569      Co  0.92737319  0.00203400  0.00331151     1.51530
Co570      Co  0.58228972  0.00242231  0.00319763     1.51690
Co571      Co  0.50462062  0.42463499  0.00260577     1.51570
Co572      Co  0.50535001  0.07964776  0.00252245     1.51470
O573        O  0.50442814  0.00189892  0.97436129    -1.42720
C574        C  0.91443285  0.10304107  0.94219748     1.08840
C575        C  0.59445282  0.40129600  0.94185624     1.08930
C576        C  0.90223450  0.41189031  0.94204353     1.08860
C577        C  0.60639832  0.09167673  0.94299150     1.08840
C578        C  0.74589571  0.39544193  0.45359676    -0.09800
C579        C  0.77648218  0.44640189  0.45500158     0.06400
C580        C  0.80803862  0.45628315  0.41380209    -0.03570
C581        C  0.78753133  0.43590097  0.36992377    -0.08020
C582        C  0.74591483  0.39305718  0.36711346     0.05510
C583        C  0.73221080  0.36761104  0.41050337    -0.03040
Br584      Br  0.70422662  0.29267866  0.41432288    -0.02740
H585        H  0.73801196  0.37319257  0.48512972     0.09420
H586        H  0.80160047  0.95757965  0.33865953     0.07440
Br587      Br  0.87213314  0.00523481  0.41531969    -0.03170
C588        C  0.79660074  0.12034073  0.40777515    -0.09800
C589        C  0.77878547  0.09717389  0.36404019     0.06400
C590        C  0.73392416  0.05661818  0.36611772    -0.03570
C591        C  0.71473067  0.03716337  0.41019407    -0.08020
C592        C  0.74645007  0.04707813  0.45178950     0.05510
C593        C  0.78571426  0.09211528  0.45095678    -0.03040
Br594      Br  0.83014481  0.11112631  0.50617572    -0.02740
H595        H  0.82104891  0.15816597  0.40807079     0.09420
H596        H  0.68332894  0.00395844  0.41030323     0.07440
Br597      Br  0.70025842  0.01750364  0.31194298    -0.03170
C598        C  0.83376348  0.47293371  0.57871584    -0.09800
C599        C  0.78241416  0.45454142  0.55874471     0.06400
C600        C  0.76055597  0.40203068  0.57246483    -0.03570
C601        C  0.78944224  0.36983288  0.60612782    -0.08020
C602        C  0.83736635  0.39100597  0.62988684     0.05510
C603        C  0.85988102  0.44260363  0.61523886    -0.03040
Br604      Br  0.92152961  0.47641752  0.64939937    -0.02740
H605        H  0.85029957  0.51386840  0.56982097     0.09420
H606        H  0.76938023  0.33271786  0.61980360     0.07440
Br607      Br  0.68302164  0.38343400  0.55936088    -0.03170
C608        C  0.69277879  0.00603695  0.60991514    -0.09800
C609        C  0.70674734  0.03115449  0.56523301     0.06400
C610        C  0.68089379  0.08512477  0.55822436    -0.03570
C611        C  0.65133384  0.11130613  0.59586259    -0.08020
C612        C  0.64567597  0.08686613  0.64044275     0.05510
C613        C  0.65984543  0.03109591  0.64450441    -0.03040
Br614      Br  0.64283951  0.49140827  0.70223407    -0.02740
H615        H  0.70891448  0.46690890  0.62141529     0.09420
H616        H  0.63526908  0.15267136  0.59147985     0.07440
Br617      Br  0.68393024  0.13403638  0.50474951    -0.03170
C618        C  0.95491972  0.33064575  0.44053824    -0.09800
C619        C  0.95170860  0.27237360  0.44940146     0.06400
C620        C  0.91808426  0.23937400  0.41897795    -0.03570
C621        C  0.88614860  0.26491254  0.38330546    -0.08020
C622        C  0.90100720  0.31857098  0.36693157     0.05510
C623        C  0.93512709  0.35227230  0.39684104    -0.03040
Br624      Br  0.96831122  0.42022039  0.37399518    -0.02740
H625        H  0.98275681  0.35663147  0.46216453     0.09420
H626        H  0.85696843  0.23991527  0.36262774     0.07440
Br627      Br  0.92881733  0.15997851  0.41562467    -0.03170
C628        C  0.56609733  0.27406185  0.41951897    -0.09800
C629        C  0.54895150  0.23260847  0.45115785     0.06400
C630        C  0.56393059  0.17665809  0.43997274    -0.03570
C631        C  0.58917433  0.16395324  0.39553040    -0.08020
C632        C  0.59232061  0.20493795  0.35963790     0.05510
C633        C  0.57606098  0.26021996  0.37216110    -0.03040
Br634      Br  0.55339466  0.31743901  0.32789089    -0.02740
H635        H  0.55923969  0.31750477  0.42818519     0.09420
H636        H  0.60044032  0.12117386  0.38734610     0.07440
Br637      Br  0.04327206  0.11553187  0.48067285    -0.03170
C638        C  0.98232783  0.17234676  0.58510999    -0.09800
C639        C  0.95643367  0.21273903  0.55613419     0.06400
C640        C  0.89817712  0.22200412  0.56272843    -0.03570
C641        C  0.86958137  0.19504858  0.60009224    -0.08020
C642        C  0.89748753  0.15901007  0.63152653     0.05510
C643        C  0.95392425  0.14655824  0.62265703    -0.03040
Br644      Br  0.99680644  0.10203725  0.66613474    -0.02740
H645        H  0.02655070  0.16391591  0.58113769     0.09420
H646        H  0.82661046  0.20651341  0.60740988     0.07440
Br647      Br  0.85473673  0.27351274  0.52595641    -0.03170
C648        C  0.59081280  0.25786271  0.56534758    -0.09800
C649        C  0.53858307  0.28152409  0.55468312     0.06400
C650        C  0.52325716  0.33082769  0.57887641    -0.03570
C651        C  0.55544075  0.35129268  0.61728291    -0.08020
C652        C  0.60439438  0.32411393  0.63133564     0.05510
C653        C  0.62336738  0.27831470  0.60402027    -0.03040
Br654      Br  0.69413468  0.24446030  0.61867612    -0.02740
H655        H  0.60439965  0.22179724  0.54530678     0.09420
H656        H  0.54042243  0.38650943  0.63796736     0.07440
Br657      Br  0.95725320  0.37045846  0.56193100    -0.03170
C658        C  0.49477438  0.74956865  0.52702530    -0.00080
C659        C  0.99652768  0.74515001  0.47874156    -0.00080
C660        C  0.74704757  0.99629229  0.53256796    -0.00080
C661        C  0.75521082  0.49741061  0.48350870    -0.00080
C662        C  0.62523007  0.83323678  0.68026323     0.41810
N663        N  0.64435204  0.80319477  0.74990864     0.00700
C664        C  0.89046620  0.82956832  0.88299799    -0.07170
H665        H  0.90633769  0.80024626  0.68621076     0.06200
C666        C  0.82732400  0.62773092  0.70195099    -0.07520
Co667      Co  0.74749718  0.85173480  0.79796430     0.74180
N668        N  0.84782396  0.81674116  0.74374607    -0.26700
Co669      Co  0.85538838  0.75545578  0.79854718     0.74070
C670        C  0.87713497  0.65532244  0.68104077     0.41920
N671        N  0.69558514  0.64593577  0.74882056     0.00320
N672        N  0.85764034  0.69405027  0.74793760     0.00420
N673        N  0.82146972  0.89419789  0.88432873    -0.47550
H674        H  0.70370557  0.89047545  0.68099799     0.06180
N675        N  0.80790130  0.85422493  0.74719925     0.00710
N676        N  0.85840294  0.69242892  0.85160578     0.00450
C677        C  0.88204175  0.63443581  0.90653305     0.42050
N678        N  0.65344668  0.68111015  0.74692650    -0.26160
C679        C  0.67589559  0.88921074  0.88227112    -0.07080
N680        N  0.60913086  0.79750134  0.71378581    -0.47260
N681        N  0.89717964  0.68322160  0.88515205    -0.47490
C682        C  0.62613339  0.86929107  0.90635368     0.41830
N683        N  0.81199879  0.85571505  0.85050419     0.00700
N684        N  0.65504365  0.68431295  0.85184864    -0.26180
N685        N  0.68400603  0.84126976  0.74370658    -0.26670
N686        N  0.69500323  0.64647338  0.85255542     0.00340
H687        H  0.57934561  0.69634280  0.89161448     0.06230
H688        H  0.80810273  0.57546284  0.88886432     0.06260
N689        N  0.85212056  0.81798768  0.84932087    -0.26720
N690        N  0.81902162  0.65433141  0.74429154    -0.26330
N691        N  0.64862693  0.80912670  0.85261062     0.00700
C692        C  0.84499510  0.87406490  0.68000343     0.42100
C693        C  0.62330802  0.66848298  0.70664622    -0.07590
N694        N  0.82010966  0.65208376  0.85003609    -0.26330
H695        H  0.80156993  0.59428275  0.68703607     0.06250
N696        N  0.80534061  0.88868210  0.71091104    -0.47560
H697        H  0.58670294  0.69033420  0.69385974     0.06230
C698        C  0.63826356  0.62386229  0.90828938     0.41930
C699        C  0.67629007  0.86152718  0.69905952    -0.07080
Co700      Co  0.64911346  0.74439505  0.80088015     0.73820
N701        N  0.69632258  0.61009129  0.71325032    -0.47270
C702        C  0.87024987  0.87956043  0.90616952     0.42200
N703        N  0.61087005  0.81948134  0.88615825    -0.47260
Co704      Co  0.75741805  0.64837438  0.79912266     0.73890
C705        C  0.83137390  0.61396411  0.88325489    -0.07590
C706        C  0.87331243  0.82533009  0.70121982    -0.07150
N707        N  0.68653099  0.84964863  0.84977264    -0.26680
N708        N  0.89244530  0.69579091  0.71180288    -0.47440
H709        H  0.92886159  0.80682731  0.88910425     0.06210
C710        C  0.61770070  0.67361613  0.88562634    -0.07570
Cl711      Cl  0.75246861  0.75004110  0.79983117    -0.50570
C712        C  0.65240706  0.62047059  0.68479244     0.41960
H713        H  0.69886672  0.92822911  0.88685581     0.06170
N714        N  0.68625366  0.60846166  0.88623164    -0.47280
C715        C  0.61084140  0.69168865  0.30978222     0.41810
N716        N  0.64102248  0.71850001  0.24159400     0.00700
C717        C  0.88515759  0.64924559  0.11910064    -0.07170
H718        H  0.88324512  0.67269167  0.31837255     0.06200
C719        C  0.86024699  0.86622752  0.28723339    -0.07520
Co720      Co  0.73293772  0.65425927  0.19318616     0.74180
N721        N  0.83268233  0.67050094  0.25348581    -0.26700
Co722      Co  0.85670878  0.73081351  0.19784997     0.74070
C723        C  0.89610552  0.82736247  0.31433339     0.41920
N724        N  0.72417176  0.87210571  0.24207598     0.00320
N725        N  0.86861919  0.79043371  0.24780433     0.00420
N726        N  0.80637040  0.59577171  0.11252585    -0.47550
H727        H  0.67327948  0.62126151  0.31076918     0.06180
N728        N  0.78758199  0.64010697  0.24432885     0.00710
N729        N  0.87341289  0.79479254  0.14407406     0.00450
C730        C  0.90989706  0.85438630  0.09485845     0.42050
N731        N  0.68566683  0.83380798  0.25121965    -0.26160
C732        C  0.65432881  0.62775470  0.11300501    -0.07080
N733        N  0.60527761  0.72945938  0.27561242    -0.47260
N734        N  0.91672963  0.80241945  0.11455286    -0.47490
C735        C  0.60423196  0.65085424  0.09289821     0.41830
N736        N  0.79891768  0.63851657  0.14288443     0.00700
N737        N  0.67118374  0.83684775  0.14331885    -0.26180
N738        N  0.67043471  0.67308131  0.24756374    -0.26670
N739        N  0.71635087  0.86898480  0.14017148     0.00340
H740        H  0.58772663  0.83980260  0.11377086     0.06230
H741        H  0.84284984  0.91921063  0.10947729     0.06260
N742        N  0.84506496  0.66946530  0.14700859    -0.26720
N743        N  0.84285390  0.83882060  0.24717347    -0.26330
N744        N  0.64231612  0.71260444  0.14009927     0.00700
C745        C  0.80272351  0.61584685  0.31677041     0.42100
C746        C  0.68334828  0.83247060  0.29998240    -0.07590
N747        N  0.84040151  0.83902891  0.14319539    -0.26330
H748        H  0.85014137  0.90827419  0.29589670     0.06250
N749        N  0.77058434  0.60792279  0.27881846    -0.47560
H750        H  0.66481588  0.79938126  0.32013188     0.06230
C751        C  0.65340633  0.90573784  0.09420214     0.41930
C752        C  0.65448310  0.65386693  0.29129392    -0.07080
Co753      Co  0.65895550  0.77628423  0.19350260     0.73820
N754        N  0.74370285  0.89926986  0.27976718    -0.47270
C755        C  0.86030520  0.60039747  0.09652939     0.42200
N756        N  0.59853287  0.70400728  0.11063899    -0.47260
Co757      Co  0.78118405  0.85564022  0.19198891     0.73890
C758        C  0.85953138  0.87753862  0.11350210    -0.07590
C759        C  0.84703311  0.65655330  0.29941993    -0.07150
N760        N  0.67440434  0.66784005  0.14163530    -0.26680
N761        N  0.90021400  0.78244268  0.28584546    -0.47440
H762        H  0.92796681  0.66471361  0.11771853     0.06210
C763        C  0.63027192  0.85608445  0.11541763    -0.07570
Cl764      Cl  0.75754597  0.75407453  0.19294213    -0.50570
C765        C  0.72174292  0.87708227  0.31882536     0.41960
H766        H  0.66977321  0.58538506  0.11096745     0.06170
N767        N  0.70735747  0.91187322  0.11071605    -0.47280
O768        O  0.93773219  0.94011943  0.05688084    -0.80780
O769        O  0.57240829  0.56414691  0.05724520    -0.80810
O770        O  0.56683686  0.93424479  0.05693466    -0.80810
O771        O  0.94493346  0.57157503  0.05731666    -0.80760
O772        O  0.64655244  0.97857845  0.03683265    -0.80880
O773        O  0.86436398  0.52736479  0.03765661    -0.80800
O774        O  0.53102089  0.64411744  0.03510584    -0.80780
O775        O  0.98072837  0.86042768  0.03560630    -0.80820
C776        C  0.94507535  0.88579280  0.06083300     1.08910
C777        C  0.56719310  0.61880105  0.06008418     1.08790
C778        C  0.62138303  0.94150333  0.06093823     1.08930
C779        C  0.89059098  0.56443843  0.06201164     1.08810
O780        O  0.90247963  0.55235539  0.95010487    -0.80780
O781        O  0.60620594  0.95220031  0.94953997    -0.80860
O782        O  0.95322883  0.90083423  0.94923741    -0.80790
O783        O  0.55519309  0.60196056  0.94896521    -0.80770
O784        O  0.62903597  0.55427453  0.96685425    -0.80830
O785        O  0.88001663  0.95015638  0.96552115    -0.80790
O786        O  0.95395219  0.62568291  0.96478510    -0.80750
O787        O  0.55563806  0.87878332  0.96457250    -0.80820
Co788      Co  0.92737338  0.50203396  0.00331151     1.51530
Co789      Co  0.58228962  0.50242207  0.00319776     1.51690
Co790      Co  0.50462084  0.92463522  0.00260576     1.51570
Co791      Co  0.50535012  0.57964755  0.00252218     1.51470
O792        O  0.50442808  0.50189865  0.97436128    -1.42720
C793        C  0.91443316  0.60304091  0.94219734     1.08840
C794        C  0.59445299  0.90129610  0.94185621     1.08930
C795        C  0.90223454  0.91189023  0.94204350     1.08860
C796        C  0.60639858  0.59167616  0.94299143     1.08840
C797        C  0.74588976  0.89544282  0.45359611    -0.09800
C798        C  0.77647874  0.94640128  0.45500153     0.06400
C799        C  0.80803731  0.95628126  0.41380298    -0.03570
C800        C  0.78753154  0.93589876  0.36992426    -0.08020
C801        C  0.74591456  0.89305551  0.36711317     0.05510
C802        C  0.73220793  0.86761057  0.41050284    -0.03040
Br803      Br  0.70422233  0.79267883  0.41432273    -0.02740
H804        H  0.73799605  0.87319779  0.48512900     0.09420
H805        H  0.80159921  0.45758201  0.33865871     0.07440
Br806      Br  0.87213419  0.50523705  0.41531750    -0.03170
C807        C  0.79660054  0.62034094  0.40777494    -0.09800
C808        C  0.77878467  0.59717430  0.36404010     0.06400
C809        C  0.73392324  0.55661870  0.36611789    -0.03570
C810        C  0.71473052  0.53716344  0.41019436    -0.08020
C811        C  0.74645042  0.54707816  0.45178949     0.05510
C812        C  0.78571461  0.59211530  0.45095655    -0.03040
Br813      Br  0.83014592  0.61112599  0.50617519    -0.02740
H814        H  0.82104901  0.65816598  0.40807041     0.09420
H815        H  0.68332897  0.50395835  0.41030372     0.07440
Br816      Br  0.70025656  0.51750461  0.31194329    -0.03170
C817        C  0.83376491  0.97293293  0.57871492    -0.09800
C818        C  0.78241508  0.95454111  0.55874439     0.06400
C819        C  0.76055624  0.90203097  0.57246553    -0.03570
C820        C  0.78944276  0.86983304  0.60612825    -0.08020
C821        C  0.83736714  0.89100594  0.62988690     0.05510
C822        C  0.85988216  0.94260323  0.61523838    -0.03040
Br823      Br  0.92153074  0.97641731  0.64939876    -0.02740
H824        H  0.85030139  0.01386733  0.56981957     0.09420
H825        H  0.76938029  0.83271864  0.61980476     0.07440
Br826      Br  0.68302033  0.88343730  0.55936662    -0.03170
C827        C  0.69277443  0.50603524  0.60991301    -0.09800
C828        C  0.70674559  0.53115387  0.56523190     0.06400
C829        C  0.68089420  0.58512533  0.55822397    -0.03570
C830        C  0.65133458  0.61130683  0.59586231    -0.08020
C831        C  0.64567583  0.58686636  0.64044218     0.05510
C832        C  0.65984318  0.53109551  0.64450317    -0.03040
Br833      Br  0.64284321  0.99140882  0.70223574    -0.02740
H834        H  0.70892220  0.96691251  0.62141880     0.09420
H835        H  0.63527070  0.65267242  0.59147985     0.07440
Br836      Br  0.68393226  0.63403787  0.50474978    -0.03170
C837        C  0.95492007  0.83064694  0.44053773    -0.09800
C838        C  0.95170885  0.77237484  0.44940125     0.06400
C839        C  0.91808441  0.73937512  0.41897792    -0.03570
C840        C  0.88614880  0.76491346  0.38330530    -0.08020
C841        C  0.90100749  0.81857176  0.36693112     0.05510
C842        C  0.93512742  0.85227325  0.39684043    -0.03040
Br843      Br  0.96831143  0.92022129  0.37399423    -0.02740
H844        H  0.98275722  0.85663277  0.46216386     0.09420
H845        H  0.85696863  0.73991606  0.36262770     0.07440
Br846      Br  0.92881740  0.65997963  0.41562495    -0.03170
C847        C  0.56609504  0.77406406  0.41951663    -0.09800
C848        C  0.54895083  0.73261119  0.45115669     0.06400
C849        C  0.56393095  0.67666086  0.43997242    -0.03570
C850        C  0.58917446  0.66395541  0.39553011    -0.08020
C851        C  0.59231952  0.70493922  0.35963678     0.05510
C852        C  0.57605867  0.76022117  0.37215898    -0.03040
Br853      Br  0.55339227  0.81743916  0.32788774    -0.02740
H854        H  0.55923692  0.81750708  0.42818208     0.09420
H855        H  0.60044133  0.62117609  0.38734654     0.07440
Br856      Br  0.04327263  0.61553318  0.48067302    -0.03170
C857        C  0.98232786  0.67234727  0.58510954    -0.09800
C858        C  0.95643382  0.71273970  0.55613382     0.06400
C859        C  0.89817729  0.72200490  0.56272810    -0.03570
C860        C  0.86958146  0.69504928  0.60009184    -0.08020
C861        C  0.89748751  0.65901058  0.63152603     0.05510
C862        C  0.95392421  0.64655866  0.62265650    -0.03040
Br863      Br  0.99680629  0.60203734  0.66613403    -0.02740
H864        H  0.02655072  0.66391634  0.58113727     0.09420
H865        H  0.82661059  0.70651420  0.60740951     0.07440
Br866      Br  0.85473706  0.77351384  0.52595628    -0.03170
C867        C  0.59081254  0.75786336  0.56534763    -0.09800
C868        C  0.53858292  0.78152496  0.55468306     0.06400
C869        C  0.52325674  0.83082817  0.57887678    -0.03570
C870        C  0.55543974  0.85129238  0.61728389    -0.08020
C871        C  0.60439325  0.82411345  0.63133657     0.05510
C872        C  0.62336675  0.77831483  0.60402073    -0.03040
Br873      Br  0.69413454  0.74446118  0.61867627    -0.02740
H874        H  0.60439959  0.72179815  0.54530656     0.09420
H875        H  0.54042127  0.88650887  0.63796859     0.07440
Br876      Br  0.95725411  0.87045947  0.56193025    -0.03170
loop_ 
_geom_bond_atom_site_label_1 
_geom_bond_atom_site_label_2 
_geom_bond_distance 
_geom_bond_site_symmetry_2 
_ccdc_geom_bond_type 
C1          C211   1.493   1_655  S
C1          C639   1.510       .  S
C1          C440   1.356       .  D
C2          C181   1.498       .  S
C2          C629   1.506       .  S
C2          C439   1.356       .  D
C3          C161   1.503       .  S
C3          C390   1.573       .  S
C3          C223   1.389       .  D
C4          C154   1.502   1_565  S
C4          C360   1.545       .  S
C4          C222   1.389       .  D
C5           N23   1.329       .  A
C5           C42   1.476       .  S
C5          C214   1.466       .  S
N6           N23   1.313       .  A
N6           N28   1.318       .  A
N6          Co43   2.012       .  S
C7           N32   1.332       .  A
C7           C45   1.444       .  S
C7           H52   1.082       .  S
H8           C49   1.081       .  S
C9           N33   1.358       .  A
C9           C13   1.479       .  S
C9           H38   1.081       .  S
Co10         N28   2.144       .  S
Co10         N18   2.033       .  S
Co10         N50   2.063       .  S
Co10         N26   2.117       .  S
Co10        Cl54   2.434       .  S
N11          C49   1.357       .  A
N11          N18   1.317       .  A
N11         Co12   2.135       .  S
Co12         N15   2.033       .  S
Co12         N32   2.057       .  S
Co12         N19   2.123       .  S
Co12        Cl54   2.454       .  S
C13          N51   1.335       .  A
C13         C204   1.475       .  S
N14          N21   1.317       .  A
N14          N44   1.309       .  A
N14         Co47   2.028       .  S
N15          N33   1.317       .  A
N15          N51   1.315       .  A
N16          C45   1.358       .  A
N16          N26   1.331       .  A
H17          C42   1.078       .  S
N18          N39   1.313       .  A
N19          N37   1.320       .  A
N19          N24   1.332       .  A
C20          N24   1.360       .  A
C20          C48   1.445       .  S
C20         C136   1.471       .  S
N21          C36   1.361       .  A
N21         Co43   2.133       .  S
C22          N50   1.335       .  A
C22          C25   1.447       .  S
C22          H56   1.082       .  S
C25          N46   1.358       .  A
C25         C137   1.469       .  S
N26          N32   1.321       .  A
N27          C53   1.329       .  A
N27          N29   1.320       .  A
N27         Co43   2.036       .  S
N28          C42   1.355       .  A
N29          N57   1.330       .  A
N29         Co47   2.119       .  S
H30          C53   1.082       .  S
H31          C48   1.082       .  S
N33         Co47   2.138       .  S
N34          N46   1.330       .  A
N34          N50   1.320       .  A
N34         Co43   2.111       .  S
C35          N39   1.335       .  A
C35          C49   1.477       .  S
C35         C164   1.473       .  S
C36          C55   1.479       .  S
C36          H40   1.081       .  S
N37          C48   1.333       .  A
N37         Co47   2.055       .  S
C41          N57   1.358       .  A
C41          C53   1.440       .  S
C41         C139   1.457       .  S
Co43        Cl54   2.465       .  S
N44          C55   1.335       .  A
C45         C138   1.465       .  S
Co47        Cl54   2.433       .  S
C55         C174   1.480       .  S
C58          N76   1.326       .  A
C58          C95   1.480       .  S
C58         C194   1.500       .  S
N59          N76   1.310       .  A
N59          N81   1.309       .  A
N59         Co96   1.981       .  S
C60          N85   1.332       .  A
C60          C98   1.442       .  S
C60         H105   1.082       .  S
H61         C102   1.075       .  S
C62          N86   1.353       .  A
C62          C66   1.477       .  S
C62          H91   1.062       .  S
Co63         N81   2.187       .  S
Co63         N71   1.959       .  S
Co63        N103   2.027       .  S
Co63         N79   2.155       .  S
Co63       Cl107   2.449       .  S
N64         C102   1.371       .  A
N64          N71   1.312       .  A
N64         Co65   2.204       .  S
Co65         N68   2.005       .  S
Co65         N85   2.050       .  S
Co65         N72   2.189       .  S
Co65       Cl107   2.436       .  S
C66         N104   1.337       .  A
C66         C184   1.492       .  S
N67          N74   1.316       .  A
N67          N97   1.313       .  A
N67        Co100   2.001       .  S
N68          N86   1.315       .  A
N68         N104   1.314       .  A
N69          C98   1.368       .  A
N69          N79   1.338       .  A
H70          C95   1.055       .  S
N71          N92   1.303       .  A
N72          N90   1.324       .  A
N72          N77   1.340       .  A
C73          N77   1.372       .  A
C73         C101   1.429       .  S
C73         C119   1.478       .  S
N74          C89   1.367       .  A
N74         Co96   2.198       .  S
C75         N103   1.326       .  A
C75          C78   1.432       .  S
C75         H109   1.082       .  S
C78          N99   1.369       .  A
C78         C120   1.472       .  S
N79          N85   1.322       .  A
N80         C106   1.331       .  A
N80          N82   1.319       .  A
N80         Co96   2.044       .  S
N81          C95   1.366       .  A
N82         N110   1.337       .  A
N82        Co100   2.136       .  S
H83         C106   1.082       .  S
H84         C101   1.082       .  S
N86        Co100   2.164       .  S
N87          N99   1.336       .  A
N87         N103   1.322       .  A
N87         Co96   2.156       .  S
C88          N92   1.315       .  A
C88         C102   1.513       .  S
C88         C151   1.514       .  S
C89         C108   1.487       .  S
C89          H93   1.068       .  S
N90         C101   1.324       .  A
N90        Co100   2.014       .  S
C94         N110   1.368       .  A
C94         C106   1.437       .  S
C94         C121   1.480       .  S
Co96       Cl107   2.414       .  S
N97         C108   1.328       .  A
C98         C122   1.486       .  S
Co100      Cl107   2.485       .  S
C108        C144   1.509       .  S
O111        C119   1.317       .  A
O111       Co350   2.128       .  S
O112        C120   1.315       .  A
O112       Co132   2.121       .  S
O113        C121   1.313       .  A
O113       Co133   2.122       .  S
O114        C122   1.312       .  A
O114       Co572   2.122       .  S
O115        C121   1.266       .  A
O115       Co351   1.885       .  S
O116        C122   1.269       .  A
O116       Co131   1.893       .  S
O117        C120   1.266       .  A
O117       Co134   1.878       .  S
O118        C119   1.267       .  A
O118       Co571   1.882       .  S
O123        C136   1.262       .  A
O123       Co131   2.009   1_556  S
O124        C137   1.261       .  A
O124       Co351   2.006   1_556  S
O125        C138   1.261       .  A
O125       Co571   1.997   1_556  S
O126        C139   1.260       .  A
O126       Co134   1.993   1_556  S
O127        C139   1.244       .  A
O127       Co132   1.954   1_556  S
O128        C138   1.248       .  A
O128       Co350   1.963   1_556  S
O129        C136   1.245       .  A
O129       Co572   1.961   1_556  S
O130        C137   1.246       .  A
O130       Co133   1.962   1_556  S
Co131       O330   2.128   1_545  S
Co131       O347   1.963   1_544  S
Co131       O573   2.014   1_554  S
Co132       O334   1.885   1_545  S
Co132       O343   2.006   1_544  S
Co132       O135   2.016   1_554  S
Co133       O556   1.882   1_455  S
Co133       O563   1.997   1_454  S
Co133       O354   2.013   1_554  S
Co134       O552   2.122   1_455  S
Co134       O567   1.961   1_454  S
Co134       O135   2.012   1_554  S
O135       Co569   2.014   1_456  S
O135       Co352   2.013   1_546  S
C140        H147   1.051       .  S
C140        C141   1.412       .  A
C140        C145   1.407       .  A
C141        C223   1.545       .  S
C141        C142   1.403       .  A
C142        C143   1.399       .  A
C142       Br368   1.913       .  S
C143        H367   1.074       .  S
C143        C144   1.418       .  A
C144        C145   1.402       .  A
C145       Br146   1.907       .  S
H148        C362   1.074       .  S
Br149       C361   1.913   1_545  S
C150        H157   1.069       .  S
C150        C151   1.400       .  A
C150        C155   1.413       .  A
C151        C152   1.436       .  A
C152        C153   1.400       .  A
C152       Br159   1.938       .  S
C153        H158   1.084       .  S
C153        C154   1.399       .  A
C154        C155   1.418       .  A
C155       Br156   1.914       .  S
C160        H167   1.082       .  S
C160        C161   1.405       .  A
C160        C165   1.402       .  A
C161        C162   1.410       .  A
C162        C163   1.401       .  A
C162       Br169   1.926       .  S
C163        H168   1.077       .  S
C163        C164   1.403       .  A
C164        C165   1.404       .  A
C165       Br166   1.913       .  S
C170        H396   1.065   1_545  S
C170        C171   1.431       .  A
C170        C175   1.389       .  A
C171        C222   1.573   1_545  S
C171        C172   1.449       .  A
C172        C173   1.418       .  A
C172       Br179   1.907       .  S
C173        H178   1.071       .  S
C173        C174   1.388       .  A
C174        C175   1.383       .  A
C175       Br395   1.923   1_545  S
Br176       C394   1.923       .  S
H177        C389   1.065       .  S
C180        H187   1.081       .  S
C180        C181   1.417       .  A
C180        C185   1.410       .  A
C181        C182   1.397       .  A
C182        C183   1.397       .  A
C182       Br189   1.918       .  S
C183        H188   1.074       .  S
C183        C184   1.407       .  A
C184        C185   1.404       .  A
C185       Br186   1.914       .  S
C190        H197   1.079       .  S
C190        C191   1.394       .  A
C190        C195   1.387       .  A
C191        C440   1.506   1_455  S
C191        C192   1.421       .  A
C192        C193   1.419       .  A
C192       Br637   1.921       .  S
C193        H198   1.083       .  S
C193        C194   1.410       .  A
C194        C195   1.423       .  A
C195       Br196   1.929       .  S
Br199       C630   1.921       .  S
C200        H207   1.081       .  S
C200        C201   1.408       .  A
C200        C205   1.398       .  A
C201        C439   1.510       .  S
C201        C202   1.421       .  A
C202        C203   1.409       .  A
C202       Br209   1.916       .  S
C203        H208   1.084       .  S
C203        C204   1.403       .  A
C204        C205   1.404       .  A
C205       Br206   1.917       .  S
C210        H217   1.079       .  S
C210        C211   1.403       .  A
C210        C215   1.407       .  A
C211        C212   1.408       .  A
C212        C213   1.397       .  A
C212       Br657   1.902   1_455  S
C213        H218   1.084       .  S
C213        C214   1.396       .  A
C214        C215   1.411       .  A
C215       Br216   1.920       .  S
Br219       C650   1.902       .  S
C220        C858   1.510       .  S
C220        C430   1.493   1_655  S
C220        C659   1.356       .  D
C221        C400   1.498       .  S
C221        C848   1.506       .  S
C221        C658   1.356       .  D
C222        C380   1.503       .  S
C223        C373   1.502       .  S
C224        N242   1.329       .  A
C224        C261   1.476       .  S
C224        C433   1.466       .  S
N225        N242   1.313       .  A
N225        N247   1.318       .  A
N225       Co262   2.012       .  S
C226        N251   1.332       .  A
C226        C264   1.444       .  S
C226        H271   1.082       .  S
H227        C268   1.081       .  S
C228        N252   1.358       .  A
C228        C232   1.479       .  S
C228        H257   1.081       .  S
Co229       N247   2.144       .  S
Co229       N237   2.033       .  S
Co229       N269   2.063       .  S
Co229       N245   2.117       .  S
Co229      Cl273   2.434       .  S
N230        C268   1.357       .  A
N230        N237   1.317       .  A
N230       Co231   2.135       .  S
Co231       N234   2.033       .  S
Co231       N251   2.057       .  S
Co231       N238   2.123       .  S
Co231      Cl273   2.454       .  S
C232        N270   1.335       .  A
C232        C423   1.475       .  S
N233        N240   1.317       .  A
N233        N263   1.309       .  A
N233       Co266   2.028       .  S
N234        N252   1.317       .  A
N234        N270   1.315       .  A
N235        C264   1.358       .  A
N235        N245   1.331       .  A
H236        C261   1.078       .  S
N237        N258   1.313       .  A
N238        N256   1.320       .  A
N238        N243   1.332       .  A
C239        N243   1.360       .  A
C239        C267   1.445       .  S
C239        C355   1.471       .  S
N240        C255   1.361       .  A
N240       Co262   2.133       .  S
C241        N269   1.335       .  A
C241        C244   1.447       .  S
C241        H275   1.082       .  S
C244        N265   1.358       .  A
C244        C356   1.469       .  S
N245        N251   1.321       .  A
N246        C272   1.329       .  A
N246        N248   1.320       .  A
N246       Co262   2.036       .  S
N247        C261   1.355       .  A
N248        N276   1.330       .  A
N248       Co266   2.119       .  S
H249        C272   1.082       .  S
H250        C267   1.082       .  S
N252       Co266   2.138       .  S
N253        N265   1.330       .  A
N253        N269   1.320       .  A
N253       Co262   2.111       .  S
C254        N258   1.335       .  A
C254        C268   1.477       .  S
C254        C383   1.473       .  S
C255        C274   1.479       .  S
C255        H259   1.081       .  S
N256        C267   1.333       .  A
N256       Co266   2.055       .  S
C260        N276   1.358       .  A
C260        C272   1.440       .  S
C260        C358   1.457       .  S
Co262      Cl273   2.465       .  S
N263        C274   1.335       .  A
C264        C357   1.465       .  S
Co266      Cl273   2.433       .  S
C274        C393   1.480       .  S
C277        N295   1.326       .  A
C277        C314   1.480       .  S
C277        C413   1.500       .  S
N278        N295   1.310       .  A
N278        N300   1.309       .  A
N278       Co315   1.981       .  S
C279        N304   1.332       .  A
C279        C317   1.442       .  S
C279        H324   1.082       .  S
H280        C321   1.075       .  S
C281        N305   1.353       .  A
C281        C285   1.477       .  S
C281        H310   1.062       .  S
Co282       N300   2.187       .  S
Co282       N290   1.959       .  S
Co282       N322   2.027       .  S
Co282       N298   2.155       .  S
Co282      Cl326   2.449       .  S
N283        C321   1.371       .  A
N283        N290   1.312       .  A
N283       Co284   2.204       .  S
Co284       N287   2.005       .  S
Co284       N304   2.050       .  S
Co284       N291   2.189       .  S
Co284      Cl326   2.436       .  S
C285        N323   1.337       .  A
C285        C403   1.492       .  S
N286        N293   1.316       .  A
N286        N316   1.313       .  A
N286       Co319   2.001       .  S
N287        N305   1.315       .  A
N287        N323   1.314       .  A
N288        C317   1.368       .  A
N288        N298   1.338       .  A
H289        C314   1.055       .  S
N290        N311   1.303       .  A
N291        N309   1.324       .  A
N291        N296   1.340       .  A
C292        N296   1.372       .  A
C292        C320   1.429       .  S
C292        C338   1.478       .  S
N293        C308   1.367       .  A
N293       Co315   2.198       .  S
C294        N322   1.326       .  A
C294        C297   1.432       .  S
C294        H328   1.082       .  S
C297        N318   1.369       .  A
C297        C339   1.472       .  S
N298        N304   1.322       .  A
N299        C325   1.331       .  A
N299        N301   1.319       .  A
N299       Co315   2.044       .  S
N300        C314   1.366       .  A
N301        N329   1.337       .  A
N301       Co319   2.136       .  S
H302        C325   1.082       .  S
H303        C320   1.082       .  S
N305       Co319   2.164       .  S
N306        N318   1.336       .  A
N306        N322   1.322       .  A
N306       Co315   2.156       .  S
C307        N311   1.315       .  A
C307        C321   1.513       .  S
C307        C370   1.514       .  S
C308        C327   1.487       .  S
C308        H312   1.068       .  S
N309        C320   1.324       .  A
N309       Co319   2.014       .  S
C313        N329   1.368       .  A
C313        C325   1.437       .  S
C313        C340   1.480       .  S
Co315      Cl326   2.414       .  S
N316        C327   1.328       .  A
C317        C341   1.486       .  S
Co319      Cl326   2.485       .  S
C327        C363   1.509       .  S
O330        C338   1.317       .  A
O331        C339   1.315       .  A
O331       Co351   2.121       .  S
O332        C340   1.313       .  A
O332       Co352   2.122       .  S
O333        C341   1.312       .  A
O333       Co791   2.122       .  S
O334        C340   1.266       .  A
O335        C341   1.269       .  A
O335       Co350   1.893       .  S
O336        C339   1.266       .  A
O336       Co353   1.878       .  S
O337        C338   1.267       .  A
O337       Co790   1.882       .  S
O342        C355   1.262       .  A
O342       Co350   2.009   1_556  S
O343        C356   1.261       .  A
O344        C357   1.261       .  A
O344       Co790   1.997   1_556  S
O345        C358   1.260       .  A
O345       Co353   1.993   1_556  S
O346        C358   1.244       .  A
O346       Co351   1.954   1_556  S
O347        C357   1.248       .  A
O348        C355   1.245       .  A
O348       Co791   1.961   1_556  S
O349        C356   1.246       .  A
O349       Co352   1.962   1_556  S
Co350       O792   2.014   1_554  S
Co351       O354   2.016   1_554  S
Co352       O775   1.882   1_455  S
Co352       O782   1.997   1_454  S
Co353       O771   2.122   1_455  S
Co353       O786   1.961   1_454  S
Co353       O354   2.012   1_554  S
O354       Co788   2.014   1_456  S
C359        H366   1.051       .  S
C359        C360   1.412       .  A
C359        C364   1.407       .  A
C360        C361   1.403       .  A
C361        C362   1.399       .  A
C362        C363   1.418       .  A
C363        C364   1.402       .  A
C364       Br365   1.907       .  S
C369        H376   1.069       .  S
C369        C370   1.400       .  A
C369        C374   1.413       .  A
C370        C371   1.436       .  A
C371        C372   1.400       .  A
C371       Br378   1.938       .  S
C372        H377   1.084       .  S
C372        C373   1.399       .  A
C373        C374   1.418       .  A
C374       Br375   1.914       .  S
C379        H386   1.082   1_565  S
C379        C380   1.405       .  A
C379        C384   1.402       .  A
C380        C381   1.410       .  A
C381        C382   1.401       .  A
C381       Br388   1.926       .  S
C382        H387   1.077       .  S
C382        C383   1.403       .  A
C383        C384   1.404       .  A
C384       Br385   1.913       .  S
C389        C390   1.431       .  A
C389        C394   1.389       .  A
C390        C391   1.449       .  A
C391        C392   1.418       .  A
C391       Br398   1.907       .  S
C392        H397   1.071       .  S
C392        C393   1.388       .  A
C393        C394   1.383       .  A
C399        H406   1.081       .  S
C399        C400   1.417       .  A
C399        C404   1.410       .  A
C400        C401   1.397       .  A
C401        C402   1.397       .  A
C401       Br408   1.918       .  S
C402        H407   1.074       .  S
C402        C403   1.407       .  A
C403        C404   1.404       .  A
C404       Br405   1.914       .  S
C409        H416   1.079       .  S
C409        C410   1.394       .  A
C409        C414   1.387       .  A
C410        C659   1.506   1_455  S
C410        C411   1.421       .  A
C411        C412   1.419       .  A
C411       Br856   1.921       .  S
C412        H417   1.083       .  S
C412        C413   1.410       .  A
C413        C414   1.423       .  A
C414       Br415   1.929       .  S
Br418       C849   1.921       .  S
C419        H426   1.081       .  S
C419        C420   1.408       .  A
C419        C424   1.398       .  A
C420        C658   1.510       .  S
C420        C421   1.421       .  A
C421        C422   1.409       .  A
C421       Br428   1.916       .  S
C422        H427   1.084       .  S
C422        C423   1.403       .  A
C423        C424   1.404       .  A
C424       Br425   1.917       .  S
C429        H436   1.079       .  S
C429        C430   1.403       .  A
C429        C434   1.407       .  A
C430        C431   1.408       .  A
C431        C432   1.397       .  A
C431       Br876   1.902   1_455  S
C432        H437   1.084       .  S
C432        C433   1.396       .  A
C433        C434   1.411       .  A
C434       Br435   1.920       .  S
Br438       C869   1.902       .  S
C439        C649   1.493       .  S
C440        C619   1.498       .  S
C441        C599   1.503       .  S
C441        C828   1.573       .  S
C441        C661   1.389       .  D
C442        C798   1.545       .  S
C442        C592   1.502   1_565  S
C442        C660   1.389       .  D
C443        N461   1.329       .  A
C443        C480   1.476       .  S
C443        C652   1.466       .  S
N444        N461   1.313       .  A
N444        N466   1.318       .  A
N444       Co481   2.012       .  S
C445        N470   1.332       .  A
C445        C483   1.444       .  S
C445        H490   1.082       .  S
H446        C487   1.081       .  S
C447        N471   1.358       .  A
C447        C451   1.479       .  S
C447        H476   1.081       .  S
Co448       N466   2.144       .  S
Co448       N456   2.033       .  S
Co448       N488   2.063       .  S
Co448       N464   2.117       .  S
Co448      Cl492   2.434       .  S
N449        C487   1.357       .  A
N449        N456   1.317       .  A
N449       Co450   2.135       .  S
Co450       N453   2.033       .  S
Co450       N470   2.057       .  S
Co450       N457   2.123       .  S
Co450      Cl492   2.454       .  S
C451        N489   1.335       .  A
C451        C642   1.475       .  S
N452        N459   1.317       .  A
N452        N482   1.309       .  A
N452       Co485   2.028       .  S
N453        N471   1.317       .  A
N453        N489   1.315       .  A
N454        C483   1.358       .  A
N454        N464   1.331       .  A
H455        C480   1.078       .  S
N456        N477   1.313       .  A
N457        N475   1.320       .  A
N457        N462   1.332       .  A
C458        N462   1.360       .  A
C458        C486   1.445       .  S
C458        C574   1.471       .  S
N459        C474   1.361       .  A
N459       Co481   2.133       .  S
C460        N488   1.335       .  A
C460        C463   1.447       .  S
C460        H494   1.082       .  S
C463        N484   1.358       .  A
C463        C575   1.469       .  S
N464        N470   1.321       .  A
N465        C491   1.329       .  A
N465        N467   1.320       .  A
N465       Co481   2.036       .  S
N466        C480   1.355       .  A
N467        N495   1.330       .  A
N467       Co485   2.119       .  S
H468        C491   1.082       .  S
H469        C486   1.082       .  S
N471       Co485   2.138       .  S
N472        N484   1.330       .  A
N472        N488   1.320       .  A
N472       Co481   2.111       .  S
C473        N477   1.335       .  A
C473        C487   1.477       .  S
C473        C602   1.473       .  S
C474        C493   1.479       .  S
C474        H478   1.081       .  S
N475        C486   1.333       .  A
N475       Co485   2.055       .  S
C479        N495   1.358       .  A
C479        C491   1.440       .  S
C479        C577   1.457       .  S
Co481      Cl492   2.465       .  S
N482        C493   1.335       .  A
C483        C576   1.465       .  S
Co485      Cl492   2.433       .  S
C493        C612   1.480       .  S
C496        N514   1.326       .  A
C496        C533   1.480       .  S
C496        C632   1.500       .  S
N497        N514   1.310       .  A
N497        N519   1.309       .  A
N497       Co534   1.981       .  S
C498        N523   1.332       .  A
C498        C536   1.442       .  S
C498        H543   1.082       .  S
H499        C540   1.075       .  S
C500        N524   1.353       .  A
C500        C504   1.477       .  S
C500        H529   1.062       .  S
Co501       N519   2.187       .  S
Co501       N509   1.959       .  S
Co501       N541   2.027       .  S
Co501       N517   2.155       .  S
Co501      Cl545   2.449       .  S
N502        C540   1.371       .  A
N502        N509   1.312       .  A
N502       Co503   2.204       .  S
Co503       N506   2.005       .  S
Co503       N523   2.050       .  S
Co503       N510   2.189       .  S
Co503      Cl545   2.436       .  S
C504        N542   1.337       .  A
C504        C622   1.492       .  S
N505        N512   1.316       .  A
N505        N535   1.313       .  A
N505       Co538   2.001       .  S
N506        N524   1.315       .  A
N506        N542   1.314       .  A
N507        C536   1.368       .  A
N507        N517   1.338       .  A
H508        C533   1.055       .  S
N509        N530   1.303       .  A
N510        N528   1.324       .  A
N510        N515   1.340       .  A
C511        N515   1.372       .  A
C511        C539   1.429       .  S
C511        C557   1.478       .  S
N512        C527   1.367       .  A
N512       Co534   2.198       .  S
C513        N541   1.326       .  A
C513        C516   1.432       .  S
C513        H547   1.082       .  S
C516        N537   1.369       .  A
C516        C558   1.472       .  S
N517        N523   1.322       .  A
N518        C544   1.331       .  A
N518        N520   1.319       .  A
N518       Co534   2.044       .  S
N519        C533   1.366       .  A
N520        N548   1.337       .  A
N520       Co538   2.136       .  S
H521        C544   1.082       .  S
H522        C539   1.082       .  S
N524       Co538   2.164       .  S
N525        N537   1.336       .  A
N525        N541   1.322       .  A
N525       Co534   2.156       .  S
C526        N530   1.315       .  A
C526        C540   1.513       .  S
C526        C589   1.514       .  S
C527        C546   1.487       .  S
C527        H531   1.068       .  S
N528        C539   1.324       .  A
N528       Co538   2.014       .  S
C532        N548   1.368       .  A
C532        C544   1.437       .  S
C532        C559   1.480       .  S
Co534      Cl545   2.414       .  S
N535        C546   1.328       .  A
C536        C560   1.486       .  S
Co538      Cl545   2.485       .  S
C546        C582   1.509       .  S
O549        C557   1.317       .  A
O549       Co788   2.128       .  S
O550        C558   1.315       .  A
O550       Co570   2.121       .  S
O551        C559   1.313       .  A
O551       Co571   2.122       .  S
O552        C560   1.312       .  A
O553        C559   1.266       .  A
O553       Co789   1.885       .  S
O554        C560   1.269       .  A
O554       Co569   1.893       .  S
O555        C558   1.266       .  A
O555       Co572   1.878       .  S
O556        C557   1.267       .  A
O561        C574   1.262       .  A
O561       Co569   2.009   1_556  S
O562        C575   1.261       .  A
O562       Co789   2.006   1_556  S
O563        C576   1.261       .  A
O564        C577   1.260       .  A
O564       Co572   1.993   1_556  S
O565        C577   1.244       .  A
O565       Co570   1.954   1_556  S
O566        C576   1.248       .  A
O566       Co788   1.963   1_556  S
O567        C574   1.245       .  A
O568        C575   1.246       .  A
O568       Co571   1.962   1_556  S
Co569       O768   2.128   1_545  S
Co569       O785   1.963   1_544  S
Co570       O772   1.885   1_545  S
Co570       O781   2.006   1_544  S
Co570       O573   2.016   1_554  S
Co571       O792   2.013   1_554  S
Co572       O573   2.012   1_554  S
O573       Co790   2.013   1_546  S
C578        H585   1.051       .  S
C578        C579   1.412       .  A
C578        C583   1.407       .  A
C579        C661   1.545       .  S
C579        C580   1.403       .  A
C580        C581   1.399       .  A
C580       Br806   1.913       .  S
C581        H805   1.074       .  S
C581        C582   1.418       .  A
C582        C583   1.402       .  A
C583       Br584   1.907       .  S
H586        C800   1.074       .  S
Br587       C799   1.913   1_545  S
C588        H595   1.069       .  S
C588        C589   1.400       .  A
C588        C593   1.413       .  A
C589        C590   1.436       .  A
C590        C591   1.400       .  A
C590       Br597   1.938       .  S
C591        H596   1.084       .  S
C591        C592   1.399       .  A
C592        C593   1.418       .  A
C593       Br594   1.914       .  S
C598        H605   1.082       .  S
C598        C599   1.405       .  A
C598        C603   1.402       .  A
C599        C600   1.410       .  A
C600        C601   1.401       .  A
C600       Br607   1.926       .  S
C601        H606   1.077       .  S
C601        C602   1.403       .  A
C602        C603   1.404       .  A
C603       Br604   1.913       .  S
C608        H834   1.065   1_545  S
C608        C609   1.431       .  A
C608        C613   1.389       .  A
C609        C660   1.573   1_545  S
C609        C610   1.449       .  A
C610        C611   1.418       .  A
C610       Br617   1.907       .  S
C611        H616   1.071       .  S
C611        C612   1.388       .  A
C612        C613   1.383       .  A
C613       Br833   1.923   1_545  S
Br614       C832   1.923       .  S
H615        C827   1.065       .  S
C618        H625   1.081       .  S
C618        C619   1.417       .  A
C618        C623   1.410       .  A
C619        C620   1.397       .  A
C620        C621   1.397       .  A
C620       Br627   1.918       .  S
C621        H626   1.074       .  S
C621        C622   1.407       .  A
C622        C623   1.404       .  A
C623       Br624   1.914       .  S
C628        H635   1.079       .  S
C628        C629   1.394       .  A
C628        C633   1.387       .  A
C629        C630   1.421       .  A
C630        C631   1.419       .  A
C631        H636   1.083       .  S
C631        C632   1.410       .  A
C632        C633   1.423       .  A
C633       Br634   1.929       .  S
C638        H645   1.081   1_655  S
C638        C639   1.408       .  A
C638        C643   1.398       .  A
C639        C640   1.421       .  A
C640        C641   1.409       .  A
C640       Br647   1.916       .  S
C641        H646   1.084       .  S
C641        C642   1.403       .  A
C642        C643   1.404       .  A
C643       Br644   1.917       .  S
C648        H655   1.079       .  S
C648        C649   1.403       .  A
C648        C653   1.407       .  A
C649        C650   1.408       .  A
C650        C651   1.397       .  A
C651        H656   1.084       .  S
C651        C652   1.396       .  A
C652        C653   1.411       .  A
C653       Br654   1.920       .  S
C658        C868   1.493       .  S
C659        C838   1.498       .  S
C660        C818   1.503       .  S
C661        C811   1.502       .  S
C662        N680   1.329       .  A
C662        C699   1.476       .  S
C662        C871   1.466       .  S
N663        N680   1.313       .  A
N663        N685   1.318       .  A
N663       Co700   2.012       .  S
C664        N689   1.332       .  A
C664        C702   1.444       .  S
C664        H709   1.082       .  S
H665        C706   1.081       .  S
C666        N690   1.358       .  A
C666        C670   1.479       .  S
C666        H695   1.081       .  S
Co667       N685   2.144       .  S
Co667       N675   2.033       .  S
Co667       N707   2.063       .  S
Co667       N683   2.117       .  S
Co667      Cl711   2.434       .  S
N668        C706   1.357       .  A
N668        N675   1.317       .  A
N668       Co669   2.135       .  S
Co669       N672   2.033       .  S
Co669       N689   2.057       .  S
Co669       N676   2.123       .  S
Co669      Cl711   2.454       .  S
C670        N708   1.335       .  A
C670        C861   1.475       .  S
N671        N678   1.317       .  A
N671        N701   1.309       .  A
N671       Co704   2.028       .  S
N672        N690   1.317       .  A
N672        N708   1.315       .  A
N673        C702   1.358       .  A
N673        N683   1.331       .  A
H674        C699   1.078       .  S
N675        N696   1.313       .  A
N676        N694   1.320       .  A
N676        N681   1.332       .  A
C677        N681   1.360       .  A
C677        C705   1.445       .  S
C677        C793   1.471       .  S
N678        C693   1.361       .  A
N678       Co700   2.133       .  S
C679        N707   1.335       .  A
C679        C682   1.447       .  S
C679        H713   1.082       .  S
C682        N703   1.358       .  A
C682        C794   1.469       .  S
N683        N689   1.321       .  A
N684        C710   1.329       .  A
N684        N686   1.320       .  A
N684       Co700   2.036       .  S
N685        C699   1.355       .  A
N686        N714   1.330       .  A
N686       Co704   2.119       .  S
H687        C710   1.082       .  S
H688        C705   1.082       .  S
N690       Co704   2.138       .  S
N691        N703   1.330       .  A
N691        N707   1.320       .  A
N691       Co700   2.111       .  S
C692        N696   1.335       .  A
C692        C706   1.477       .  S
C692        C821   1.473       .  S
C693        C712   1.479       .  S
C693        H697   1.081       .  S
N694        C705   1.333       .  A
N694       Co704   2.055       .  S
C698        N714   1.358       .  A
C698        C710   1.440       .  S
C698        C796   1.457       .  S
Co700      Cl711   2.465       .  S
N701        C712   1.335       .  A
C702        C795   1.465       .  S
Co704      Cl711   2.433       .  S
C712        C831   1.480       .  S
C715        N733   1.326       .  A
C715        C752   1.480       .  S
C715        C851   1.500       .  S
N716        N733   1.310       .  A
N716        N738   1.309       .  A
N716       Co753   1.981       .  S
C717        N742   1.332       .  A
C717        C755   1.442       .  S
C717        H762   1.082       .  S
H718        C759   1.075       .  S
C719        N743   1.353       .  A
C719        C723   1.477       .  S
C719        H748   1.062       .  S
Co720       N738   2.187       .  S
Co720       N728   1.959       .  S
Co720       N760   2.027       .  S
Co720       N736   2.155       .  S
Co720      Cl764   2.449       .  S
N721        C759   1.371       .  A
N721        N728   1.312       .  A
N721       Co722   2.204       .  S
Co722       N725   2.005       .  S
Co722       N742   2.050       .  S
Co722       N729   2.189       .  S
Co722      Cl764   2.436       .  S
C723        N761   1.337       .  A
C723        C841   1.492       .  S
N724        N731   1.316       .  A
N724        N754   1.313       .  A
N724       Co757   2.001       .  S
N725        N743   1.315       .  A
N725        N761   1.314       .  A
N726        C755   1.368       .  A
N726        N736   1.338       .  A
H727        C752   1.055       .  S
N728        N749   1.303       .  A
N729        N747   1.324       .  A
N729        N734   1.340       .  A
C730        N734   1.372       .  A
C730        C758   1.429       .  S
C730        C776   1.478       .  S
N731        C746   1.367       .  A
N731       Co753   2.198       .  S
C732        N760   1.326       .  A
C732        C735   1.432       .  S
C732        H766   1.082       .  S
C735        N756   1.369       .  A
C735        C777   1.472       .  S
N736        N742   1.322       .  A
N737        C763   1.331       .  A
N737        N739   1.319       .  A
N737       Co753   2.044       .  S
N738        C752   1.366       .  A
N739        N767   1.337       .  A
N739       Co757   2.136       .  S
H740        C763   1.082       .  S
H741        C758   1.082       .  S
N743       Co757   2.164       .  S
N744        N756   1.336       .  A
N744        N760   1.322       .  A
N744       Co753   2.156       .  S
C745        N749   1.315       .  A
C745        C759   1.513       .  S
C745        C808   1.514       .  S
C746        C765   1.487       .  S
C746        H750   1.068       .  S
N747        C758   1.324       .  A
N747       Co757   2.014       .  S
C751        N767   1.368       .  A
C751        C763   1.437       .  S
C751        C778   1.480       .  S
Co753      Cl764   2.414       .  S
N754        C765   1.328       .  A
C755        C779   1.486       .  S
Co757      Cl764   2.485       .  S
C765        C801   1.509       .  S
O768        C776   1.317       .  A
O769        C777   1.315       .  A
O769       Co789   2.121       .  S
O770        C778   1.313       .  A
O770       Co790   2.122       .  S
O771        C779   1.312       .  A
O772        C778   1.266       .  A
O773        C779   1.269       .  A
O773       Co788   1.893       .  S
O774        C777   1.266       .  A
O774       Co791   1.878       .  S
O775        C776   1.267       .  A
O780        C793   1.262       .  A
O780       Co788   2.009   1_556  S
O781        C794   1.261       .  A
O782        C795   1.261       .  A
O783        C796   1.260       .  A
O783       Co791   1.993   1_556  S
O784        C796   1.244       .  A
O784       Co789   1.954   1_556  S
O785        C795   1.248       .  A
O786        C793   1.245       .  A
O787        C794   1.246       .  A
O787       Co790   1.962   1_556  S
Co789       O792   2.016   1_554  S
Co791       O792   2.012   1_554  S
C797        H804   1.051       .  S
C797        C798   1.412       .  A
C797        C802   1.407       .  A
C798        C799   1.403       .  A
C799        C800   1.399       .  A
C800        C801   1.418       .  A
C801        C802   1.402       .  A
C802       Br803   1.907       .  S
C807        H814   1.069       .  S
C807        C808   1.400       .  A
C807        C812   1.413       .  A
C808        C809   1.436       .  A
C809        C810   1.400       .  A
C809       Br816   1.938       .  S
C810        H815   1.084       .  S
C810        C811   1.399       .  A
C811        C812   1.418       .  A
C812       Br813   1.914       .  S
C817        H824   1.082   1_565  S
C817        C818   1.405       .  A
C817        C822   1.402       .  A
C818        C819   1.410       .  A
C819        C820   1.401       .  A
C819       Br826   1.926       .  S
C820        H825   1.077       .  S
C820        C821   1.403       .  A
C821        C822   1.404       .  A
C822       Br823   1.913       .  S
C827        C828   1.431       .  A
C827        C832   1.389       .  A
C828        C829   1.449       .  A
C829        C830   1.418       .  A
C829       Br836   1.907       .  S
C830        H835   1.071       .  S
C830        C831   1.388       .  A
C831        C832   1.383       .  A
C837        H844   1.081       .  S
C837        C838   1.417       .  A
C837        C842   1.410       .  A
C838        C839   1.397       .  A
C839        C840   1.397       .  A
C839       Br846   1.918       .  S
C840        H845   1.074       .  S
C840        C841   1.407       .  A
C841        C842   1.404       .  A
C842       Br843   1.914       .  S
C847        H854   1.079       .  S
C847        C848   1.394       .  A
C847        C852   1.387       .  A
C848        C849   1.421       .  A
C849        C850   1.419       .  A
C850        H855   1.083       .  S
C850        C851   1.410       .  A
C851        C852   1.423       .  A
C852       Br853   1.929       .  S
C857        H864   1.081   1_655  S
C857        C858   1.408       .  A
C857        C862   1.398       .  A
C858        C859   1.421       .  A
C859        C860   1.409       .  A
C859       Br866   1.916       .  S
C860        H865   1.084       .  S
C860        C861   1.403       .  A
C861        C862   1.404       .  A
C862       Br863   1.917       .  S
C867        H874   1.079       .  S
C867        C868   1.403       .  A
C867        C872   1.407       .  A
C868        C869   1.408       .  A
C869        C870   1.397       .  A
C870        H875   1.084       .  S
C870        C871   1.396       .  A
C871        C872   1.411       .  A
C872       Br873   1.920       .  S
