geometry optimzed in LAMMPS
_audit_creation_date              2020-11-30 
_audit_creation_method            'lammps2cif' 
_symmetry_space_group_name_H-M    'P1' 
_symmetry_Int_Tables_number       1 
_symmetry_cell_setting            triclinic 
loop_ 
_symmetry_equiv_pos_as_xyz 
  x,y,z 
_cell_length_a                    49.69921991834848 
_cell_length_b                    42.27793936549806 
_cell_length_c                    38.99214286728702 
_cell_angle_alpha                 89.9398542994083 
_cell_angle_beta                  89.87386740543553 
_cell_angle_gamma                 89.84323833639405 
loop_ 
_atom_site_label 
_atom_site_type_symbol 
_atom_site_fract_x 
_atom_site_fract_y 
_atom_site_fract_z 
_atom_site_charge 
N1          N  0.44430456  0.93512914  0.59959356    -0.27540
N2          N  0.44196339  0.91060339  0.62036605    -0.35400
C3          C  0.46602970  0.90449627  0.63469916     0.00800
C4          C  0.48441664  0.92644227  0.62255478     0.06830
C5          C  0.46989191  0.94529516  0.60010565    -0.06270
H6          H  0.47010706  0.88468739  0.65151143     0.07490
H7          H  0.47769173  0.96373724  0.58364829     0.08690
Cu8        Cu  0.40690476  0.88449078  0.62430317     0.44170
Cu9        Cu  0.41350861  0.95075739  0.56807295     0.41990
Cu10       Cu  0.35431157  0.90134726  0.56123028     0.43880
N11         N  0.37138620  0.85930743  0.62003062    -0.34930
N12         N  0.35263573  0.86469309  0.59667932    -0.29180
C13         C  0.33271265  0.84350607  0.60078248    -0.05280
C14         C  0.33924571  0.82409403  0.62810615     0.06940
C15         C  0.36380161  0.83481146  0.63973652     0.00730
H16         H  0.31457386  0.84276711  0.58550175     0.08380
H17         H  0.37533314  0.82554159  0.66102541     0.07460
N18         N  0.36113960  0.94070423  0.53053861    -0.36370
N19         N  0.38239187  0.95916113  0.53397044    -0.28550
C20         C  0.38177754  0.98159374  0.50957970    -0.03790
C21         C  0.35904296  0.97718632  0.48977535     0.04820
C22         C  0.34654459  0.95082472  0.50359348     0.02910
H23         H  0.39766290  0.99856020  0.50517268     0.08020
H24         H  0.32875119  0.93914777  0.49396924     0.06850
N25         N  0.64188432  0.93479976  0.60439122    -0.27780
N26         N  0.64393064  0.91099145  0.62621258    -0.35400
C27         C  0.61926793  0.90355448  0.63796088     0.00800
C28         C  0.60070191  0.92335386  0.62234187     0.06830
C29         C  0.61585481  0.94310173  0.60158882    -0.06270
H30         H  0.61517057  0.88456498  0.65580824     0.07490
H31         H  0.60835767  0.96124782  0.58448332     0.08690
Cu32       Cu  0.67964777  0.88713128  0.63522055     0.44170
Cu33       Cu  0.67410491  0.95239042  0.57637615     0.41990
Cu34       Cu  0.73476075  0.90517286  0.57651486     0.43880
N35         N  0.71557023  0.86227703  0.63345033    -0.34930
N36         N  0.73520030  0.86808258  0.61137196    -0.29180
C37         C  0.75487937  0.84657917  0.61585158    -0.05280
C38         C  0.74728505  0.82648834  0.64211041     0.06940
C39         C  0.72235369  0.83716648  0.65278511     0.00730
H40         H  0.77349603  0.84595544  0.60142734     0.08380
H41         H  0.70992575  0.82727133  0.67290808     0.07460
N42         N  0.72900040  0.94376831  0.54447542    -0.36370
N43         N  0.70713363  0.96163662  0.54532202    -0.28550
C44         C  0.70840257  0.98291180  0.51974453    -0.03790
C45         C  0.73217012  0.97826260  0.50197572     0.04820
C46         C  0.74461161  0.95301960  0.51806514     0.02910
H47         H  0.69216543  0.99871235  0.51271262     0.08020
H48         H  0.76270590  0.94093957  0.50980395     0.06850
N49         N  0.64607022  0.08215447  0.26212471    -0.27540
N50         N  0.64959390  0.10355006  0.23788597    -0.35400
C51         C  0.62576658  0.10956196  0.22277971     0.00800
C52         C  0.60625850  0.09126470  0.23877490     0.06830
C53         C  0.62002912  0.07401538  0.26331666    -0.06270
H54         H  0.62288385  0.12636982  0.20217890     0.07490
H55         H  0.61156129  0.05747458  0.28154800     0.08690
Cu56       Cu  0.68641157  0.12532645  0.23044263     0.44170
Cu57       Cu  0.67640895  0.06675764  0.29409392     0.41990
Cu58       Cu  0.73980943  0.10748363  0.29419991     0.43880
N59         N  0.72273292  0.14895550  0.23440734    -0.34930
N60         N  0.74151518  0.14347867  0.25774508    -0.29180
C61         C  0.76134717  0.16482621  0.25377339    -0.05280
C62         C  0.75469569  0.18442980  0.22665218     0.06940
C63         C  0.73022996  0.17361716  0.21491576     0.00730
H64         H  0.77936275  0.16578525  0.26927207     0.08380
H65         H  0.71850516  0.18321298  0.19396871     0.07460
N66         N  0.73102952  0.07023067  0.32730151    -0.36370
N67         N  0.70772598  0.05530226  0.32645394    -0.28550
C68         C  0.70708050  0.03351533  0.35143873    -0.03790
C69         C  0.73122552  0.03436770  0.36892799     0.04820
C70         C  0.74587268  0.05825607  0.35318031     0.02910
H71         H  0.68966681  0.01929823  0.35758094     0.08020
H72         H  0.76547401  0.06690996  0.36063043     0.06850
N73         N  0.44936443  0.07506049  0.25246025    -0.27540
N74         N  0.44730875  0.09768791  0.22923870    -0.35400
C75         C  0.47186679  0.10365231  0.21617057     0.00800
C76         C  0.49032331  0.08366861  0.23181521     0.06830
C77         C  0.47524681  0.06620267  0.25499907    -0.06270
H78         H  0.47613073  0.12212898  0.19773966     0.07490
H79         H  0.48267819  0.04967878  0.27394918     0.08690
Cu80       Cu  0.41187371  0.12232310  0.22064479     0.44170
Cu81       Cu  0.41756316  0.05954644  0.28245524     0.41990
Cu82       Cu  0.35762241  0.10710560  0.28233413     0.43880
N83         N  0.37629037  0.14788305  0.22313768    -0.34930
N84         N  0.35708944  0.14303837  0.24610575    -0.29180
C85         C  0.33759707  0.16476900  0.24167710    -0.05280
C86         C  0.34485488  0.18405309  0.21458956     0.06940
C87         C  0.36939467  0.17263839  0.20332319     0.00730
H88         H  0.31934219  0.16612924  0.25677784     0.08380
H89         H  0.38148455  0.18179130  0.18246041     0.07460
N90         N  0.36322406  0.06906660  0.31515342    -0.36370
N91         N  0.38485165  0.05083342  0.31405249    -0.28550
C92         C  0.38334620  0.02924954  0.33928445    -0.03790
C93         C  0.35972898  0.03423099  0.35725645     0.04820
C94         C  0.34756051  0.05987438  0.34154174     0.02910
H95         H  0.39922596  0.01275388  0.34573998     0.08020
H96         H  0.32938405  0.07186895  0.34966220     0.06850
N97         N  0.44970609  0.43384809  0.25119283    -0.27540
N98         N  0.44740392  0.41051550  0.22890380    -0.35400
C99         C  0.47191290  0.40312131  0.21655364     0.00800
C100        C  0.49065834  0.42240483  0.23232804     0.06830
C101        C  0.47576333  0.44185495  0.25376073    -0.06270
H102        H  0.47578993  0.38438906  0.19833006     0.07490
H103        H  0.48347547  0.45946124  0.27127430     0.08690
Cu104      Cu  0.41176867  0.38668098  0.22068924     0.44170
Cu105      Cu  0.41792827  0.45070407  0.28049677     0.41990
Cu106      Cu  0.35908105  0.40082991  0.28423535     0.43880
N107        N  0.37652017  0.36101004  0.22376821    -0.34930
N108        N  0.35778204  0.36534164  0.24746890    -0.29180
C109        C  0.33827201  0.34374461  0.24304134    -0.05280
C110        C  0.34508384  0.32512713  0.21518723     0.06940
C111        C  0.36936767  0.33675735  0.20352827     0.00730
H112        H  0.32028580  0.34206203  0.25861308     0.08380
H113        H  0.38108715  0.32814617  0.18204298     0.07460
N114        N  0.36500293  0.43936292  0.31631887    -0.36370
N115        N  0.38594510  0.45843627  0.31365121    -0.28550
C116        C  0.38468278  0.48019845  0.33869097    -0.03790
C117        C  0.36196136  0.47449380  0.35821310     0.04820
C118        C  0.35006569  0.44824064  0.34352897     0.02910
H119        H  0.40022163  0.49739151  0.34389913     0.08020
H120        H  0.33253342  0.43573006  0.35279632     0.06850
N121        N  0.64618693  0.43201859  0.25813294    -0.27540
N122        N  0.64931088  0.40872607  0.23597559    -0.35400
C123        C  0.62557261  0.40301968  0.22064345     0.00800
C124        C  0.60669309  0.42409856  0.23358254     0.06830
C125        C  0.62050268  0.44185926  0.25755473    -0.06270
H126        H  0.62209005  0.38420548  0.20240341     0.07490
H127        H  0.61219258  0.45943435  0.27473270     0.08690
Cu128      Cu  0.68533758  0.38440624  0.23141769     0.44170
Cu129      Cu  0.67628337  0.44683716  0.29065777     0.41990
Cu130      Cu  0.73908658  0.40372331  0.29353248     0.43880
N131        N  0.72170321  0.36068510  0.23545453    -0.34930
N132        N  0.74076284  0.36676059  0.25818803    -0.29180
C133        C  0.76085630  0.34563230  0.25405705    -0.05280
C134        C  0.75409145  0.32560071  0.22740007     0.06940
C135        C  0.72927013  0.33590830  0.21616319     0.00730
H136        H  0.77919634  0.34523844  0.26896183     0.08380
H137        H  0.71743812  0.32602511  0.19553625     0.07460
N138        N  0.73029005  0.44187548  0.32552590    -0.36370
N139        N  0.70722470  0.45740710  0.32386450    -0.28550
C140        C  0.70643984  0.47935402  0.34863742    -0.03790
C141        C  0.73029161  0.47810753  0.36678316     0.04820
C142        C  0.74486749  0.45373915  0.35163441     0.02910
H143        H  0.68906418  0.49392733  0.35418534     0.08020
H144        H  0.76421098  0.44463209  0.35970530     0.06850
N145        N  0.44447567  0.57250973  0.60237709    -0.27540
N146        N  0.44212611  0.59810581  0.62154981    -0.35400
C147        C  0.46628248  0.60527867  0.63488026     0.00800
C148        C  0.48475533  0.58290839  0.62384812     0.06830
C149        C  0.47020395  0.56261420  0.60309576    -0.06270
H150        H  0.47035189  0.62608647  0.65012608     0.07490
H151        H  0.47809555  0.54341008  0.58774589     0.08690
Cu152      Cu  0.40699697  0.62420169  0.62474570     0.44170
Cu153      Cu  0.41355965  0.55558589  0.57180644     0.41990
Cu154      Cu  0.35470801  0.60634094  0.56267043     0.43880
N155        N  0.37136067  0.64918393  0.62050974    -0.34930
N156        N  0.35255751  0.64345070  0.59739792    -0.29180
C157        C  0.33245300  0.66454967  0.60138166    -0.05280
C158        C  0.33896549  0.68423323  0.62841656     0.06940
C159        C  0.36367115  0.67378691  0.63996655     0.00730
H160        H  0.31422764  0.66504044  0.58625146     0.08380
H161        H  0.37523968  0.68331763  0.66102807     0.07460
N162        N  0.36192053  0.56666410  0.53266685    -0.36370
N163        N  0.38279618  0.54760638  0.53695892    -0.28550
C164        C  0.38246309  0.52530794  0.51242257    -0.03790
C165        C  0.36038630  0.53055641  0.49161027     0.04820
C166        C  0.34793818  0.55714109  0.50503108     0.02910
H167        H  0.39822777  0.50799885  0.50848383     0.08020
H168        H  0.33070590  0.56948327  0.49457323     0.06850
N169        N  0.64220988  0.57613469  0.60390177    -0.27540
N170        N  0.64381741  0.60092646  0.62439879    -0.35400
C171        C  0.61902648  0.60839582  0.63576623     0.00800
C172        C  0.60088021  0.58745939  0.62141487     0.06830
C173        C  0.61634820  0.56711607  0.60171535    -0.06270
H174        H  0.61450637  0.62817618  0.65239531     0.07490
H175        H  0.60914908  0.54812884  0.58560357     0.08690
Cu176      Cu  0.67913983  0.62562588  0.63246107     0.44170
Cu177      Cu  0.67464961  0.55849098  0.57622491     0.41990
Cu178      Cu  0.73447742  0.60710509  0.57446307     0.43880
N179        N  0.71508530  0.65021889  0.63107510    -0.34930
N180        N  0.73486344  0.64423544  0.60924646    -0.29180
C181        C  0.75466473  0.66537692  0.61416025    -0.05280
C182        C  0.74699898  0.68538582  0.64047441     0.06940
C183        C  0.72189053  0.67504956  0.65069843     0.00730
H184        H  0.77345154  0.66572944  0.60009214     0.08380
H185        H  0.70940147  0.68491958  0.67079667     0.07460
N186        N  0.72881271  0.56832468  0.54272477    -0.36370
N187        N  0.70734542  0.54996223  0.54430610    -0.28550
C188        C  0.70852351  0.52876044  0.51868627    -0.03790
C189        C  0.73180866  0.53396224  0.50011841     0.04820
C190        C  0.74405722  0.55944841  0.51579701     0.02910
H191        H  0.69246519  0.51263122  0.51218438     0.08020
H192        H  0.76172070  0.57193852  0.50692685     0.06850
N193        N  0.94396570  0.93544127  0.75415135    -0.27540
N194        N  0.94148354  0.91012444  0.73462570    -0.35400
C195        C  0.96554375  0.90299207  0.72077213     0.00800
C196        C  0.98408211  0.92510192  0.73186464     0.06830
C197        C  0.96967611  0.94518034  0.75319547    -0.06270
H198        H  0.96951110  0.88236824  0.70513707     0.07490
H199        H  0.97765776  0.96411245  0.76875694     0.08690
Cu200      Cu  0.90633080  0.88431794  0.73175438     0.44170
Cu201      Cu  0.91325188  0.95222002  0.78530070     0.41990
Cu202      Cu  0.85401972  0.90237909  0.79434709     0.43880
N203        N  0.87074774  0.85949347  0.73629521    -0.34930
N204        N  0.85193196  0.86527140  0.75952374    -0.29180
C205        C  0.83186424  0.84424722  0.75557831    -0.05280
C206        C  0.83842244  0.82457402  0.72845850     0.06940
C207        C  0.86311136  0.83495621  0.71682272     0.00730
H208        H  0.81361639  0.84382893  0.77075397     0.08380
H209        H  0.87468443  0.82546408  0.69564768     0.07460
N210        N  0.86145468  0.94191516  0.82449374    -0.36370
N211        N  0.88255701  0.96051891  0.82026359    -0.28550
C212        C  0.88239388  0.98279938  0.84480145    -0.03790
C213        C  0.86015128  0.97810386  0.86555320     0.04820
C214        C  0.84744618  0.95178621  0.85209514     0.02910
H215        H  0.89834357  0.99976356  0.84871570     0.08020
H216        H  0.82998212  0.93988745  0.86246679     0.06850
N217        N  0.14082569  0.93061435  0.75335091    -0.27540
N218        N  0.14311113  0.90682516  0.73161989    -0.35400
C219        C  0.11861089  0.89967643  0.71926845     0.00800
C220        C  0.10001945  0.91988771  0.73424649     0.06830
C221        C  0.11488085  0.93938685  0.75538479    -0.06270
H222        H  0.11458081  0.88063622  0.70151347     0.07490
H223        H  0.10721169  0.95759631  0.77228340     0.08690
Cu224      Cu  0.17919409  0.88353042  0.72337132     0.44170
Cu225      Cu  0.17252482  0.94709920  0.78242906     0.41990
Cu226      Cu  0.23534551  0.90385848  0.78074223     0.43880
N227        N  0.21584243  0.86022558  0.72451278    -0.34930
N228        N  0.23575653  0.86672024  0.74585166    -0.29180
C229        C  0.25573955  0.84567686  0.74084990    -0.05280
C230        C  0.24805190  0.82527242  0.71500182     0.06940
C231        C  0.22277070  0.83523762  0.70512780     0.00730
H232        H  0.27459816  0.84554696  0.75467152     0.08380
H233        H  0.21015480  0.82487606  0.68556508     0.07460
N234        N  0.22768741  0.94102637  0.81420738    -0.36370
N235        N  0.20459021  0.95656882  0.81442811    -0.28550
C236        C  0.20450357  0.97715953  0.84054038    -0.03790
C237        C  0.22860439  0.97449283  0.85799801     0.04820
C238        C  0.24303736  0.95157547  0.84023776     0.02910
H239        H  0.18748703  0.99185898  0.84742195     0.08020
H240        H  0.26283711  0.94251922  0.84626682     0.06850
N241        N  0.95046536  0.07588886  0.10320206    -0.27540
N242        N  0.94841466  0.09985400  0.12477077    -0.35400
C243        C  0.97304262  0.10721540  0.13652596     0.00800
C244        C  0.99161607  0.08723525  0.12113280     0.06830
C245        C  0.97647836  0.06743003  0.10053946    -0.06270
H246        H  0.97711496  0.12630736  0.15418618     0.07490
H247        H  0.98398733  0.04917687  0.08358148     0.08690
Cu248      Cu  0.91282670  0.12416666  0.13319124     0.44170
Cu249      Cu  0.91832401  0.05853255  0.07508390     0.41990
Cu250      Cu  0.85906589  0.10828350  0.07220514     0.43880
N251        N  0.87718595  0.14949888  0.13092628    -0.34930
N252        N  0.85803015  0.14449760  0.10807378    -0.29180
C253        C  0.83831215  0.16593482  0.11275187    -0.05280
C254        C  0.84540469  0.18514906  0.13991963     0.06940
C255        C  0.87007724  0.17402802  0.15090859     0.00730
H256        H  0.81998077  0.16706636  0.09786790     0.08380
H257        H  0.88207823  0.18316845  0.17177801     0.07460
N258        N  0.86480349  0.06937833  0.04060507    -0.36370
N259        N  0.88587841  0.05034092  0.04291805    -0.28550
C260        C  0.88446423  0.02848007  0.01798992    -0.03790
C261        C  0.86152476  0.03412721  0.99893430     0.04820
C262        C  0.84965126  0.06040961  0.01376040     0.02910
H263        H  0.90009057  0.01138522  0.01238892     0.08020
H264        H  0.83207083  0.07300295  0.00468737     0.06850
N265        N  0.14820514  0.07515282  0.09938580    -0.27540
N266        N  0.15052737  0.09925746  0.12067197    -0.35400
C267        C  0.12633689  0.10536553  0.13481596     0.00800
C268        C  0.10792427  0.08382183  0.12203169     0.06830
C269        C  0.12254546  0.06524273  0.09940148    -0.06270
H270        H  0.12221982  0.12486907  0.15200379     0.07490
H271        H  0.11479174  0.04714692  0.08254043     0.08690
Cu272      Cu  0.18589724  0.12469938  0.12569910     0.44170
Cu273      Cu  0.17914941  0.05967979  0.06792146     0.41990
Cu274      Cu  0.24068035  0.10491378  0.06614783     0.43880
N275        N  0.22187047  0.14922301  0.12207190    -0.34930
N276        N  0.24136359  0.14268897  0.09998782    -0.29180
C277        C  0.26118639  0.16402056  0.10369701    -0.05280
C278        C  0.25385413  0.18472215  0.12949277     0.06940
C279        C  0.22892844  0.17460358  0.14066609     0.00730
H280        H  0.27977803  0.16400435  0.08920618     0.08380
H281        H  0.21676612  0.18493277  0.16081880     0.07460
N282        N  0.23315506  0.06747663  0.03330874    -0.36370
N283        N  0.21054185  0.05108608  0.03416689    -0.28550
C284        C  0.21003745  0.03128737  0.00729346    -0.03790
C285        C  0.23341700  0.03532501  0.98866206     0.04820
C286        C  0.24772169  0.05838870  0.00584138     0.02910
H287        H  0.19302891  0.01671835  0.00040075     0.08020
H288        H  0.26623701  0.06944141  0.99756286     0.06850
N289        N  0.94547032  0.57703763  0.75871262    -0.27540
N290        N  0.94272992  0.60109257  0.73736361    -0.35400
C291        C  0.96694402  0.60832361  0.72401915     0.00800
C292        C  0.98594373  0.58809114  0.73812034     0.06830
C293        C  0.97148048  0.56834755  0.75964846    -0.06270
H294        H  0.97047768  0.62743644  0.70613086     0.07490
H295        H  0.97948979  0.54994548  0.77604019     0.08690
Cu296      Cu  0.90672257  0.62516401  0.73129313     0.44170
Cu297      Cu  0.91433748  0.55982845  0.78872250     0.41990
Cu298      Cu  0.85410169  0.60789052  0.79436807     0.43880
N299        N  0.87067567  0.64960076  0.73507142    -0.34930
N300        N  0.85193786  0.64414020  0.75849027    -0.29180
C301        C  0.83183491  0.66520770  0.75442370    -0.05280
C302        C  0.83825385  0.68463142  0.72706881     0.06940
C303        C  0.86291269  0.67403259  0.71536173     0.00730
H304        H  0.81374652  0.66599111  0.76989556     0.08380
H305        H  0.87448914  0.68349656  0.69419196     0.07460
N306        N  0.86151726  0.56911995  0.82571729    -0.36370
N307        N  0.88306477  0.55094262  0.82253663    -0.28550
C308        C  0.88282673  0.52894752  0.84740645    -0.03790
C309        C  0.86008747  0.53344788  0.86731679     0.04820
C310        C  0.84713987  0.55932408  0.85302685     0.02910
H311        H  0.89901841  0.51238346  0.85216798     0.08020
H312        H  0.82924915  0.57098228  0.86263223     0.06850
N313        N  0.14311724  0.57361560  0.75021025    -0.27540
N314        N  0.14478206  0.59813917  0.72929062    -0.35400
C315        C  0.12015663  0.60469607  0.71684747     0.00800
C316        C  0.10208139  0.58309218  0.73036392     0.06830
C317        C  0.11739574  0.56393642  0.75164567    -0.06270
H318        H  0.11555588  0.62458491  0.70036797     0.07490
H319        H  0.11012925  0.54560124  0.76863570     0.08690
Cu320      Cu  0.17975370  0.62397766  0.72241301     0.44170
Cu321      Cu  0.17506625  0.55723886  0.77956465     0.41990
Cu322      Cu  0.23404907  0.60693846  0.78229047     0.43880
N323        N  0.21542525  0.64916906  0.72451462    -0.34930
N324        N  0.23481202  0.64361397  0.74694068    -0.29180
C325        C  0.25459410  0.66483636  0.74220683    -0.05280
C326        C  0.24734358  0.68448957  0.71540556     0.06940
C327        C  0.22248021  0.67384753  0.70470132     0.00730
H328        H  0.27309882  0.66548997  0.75676258     0.08380
H329        H  0.21034728  0.68337523  0.68410155     0.07460
N330        N  0.22840791  0.56829420  0.81426835    -0.36370
N331        N  0.20730918  0.54940225  0.81228304    -0.28550
C332        C  0.20855862  0.52807508  0.83782820    -0.03790
C333        C  0.23145903  0.53386620  0.85683130     0.04820
C334        C  0.24343465  0.55973054  0.84143307     0.02910
H335        H  0.19280757  0.51135966  0.84389612     0.08020
H336        H  0.26085257  0.57251405  0.85048456     0.06850
N337        N  0.94964333  0.43557583  0.10568323    -0.27540
N338        N  0.94758933  0.41098335  0.12645116    -0.35400
C339        C  0.97219470  0.40302342  0.13789721     0.00800
C340        C  0.99073036  0.42335342  0.12323963     0.06830
C341        C  0.97566471  0.44393696  0.10334021    -0.06270
H342        H  0.97631158  0.38322380  0.15468628     0.07490
H343        H  0.98323745  0.46256110  0.08692930     0.08690
Cu344      Cu  0.91214003  0.38662276  0.13422008     0.44170
Cu345      Cu  0.91755642  0.45355520  0.07770964     0.41990
Cu346      Cu  0.85865647  0.40329013  0.07354376     0.43880
N347        N  0.87669476  0.36136008  0.13171464    -0.34930
N348        N  0.85754640  0.36664020  0.10890080    -0.29180
C349        C  0.83787238  0.34523480  0.11338870    -0.05280
C350        C  0.84501616  0.32577176  0.14041157     0.06940
C351        C  0.86965669  0.33669092  0.15149251     0.00730
H352        H  0.81953648  0.34430967  0.09850880     0.08380
H353        H  0.88167199  0.32734436  0.17230145     0.07460
N354        N  0.86435590  0.44259727  0.04254566    -0.36370
N355        N  0.88522743  0.46176618  0.04524626    -0.28550
C356        C  0.88378788  0.48377676  0.02040914    -0.03790
C357        C  0.86104242  0.47809140  0.00104031     0.04820
C358        C  0.84932086  0.45164429  0.01558544     0.02910
H359        H  0.89931283  0.50097894  0.01505265     0.08020
H360        H  0.83196275  0.43895145  0.00619592     0.06850
N361        N  0.14673340  0.43409874  0.10081899    -0.27540
N362        N  0.14928574  0.40918265  0.12098923    -0.35400
C363        C  0.12526459  0.40261933  0.13526587     0.00800
C364        C  0.10677476  0.42479718  0.12379930     0.06830
C365        C  0.12110589  0.44420444  0.10178487    -0.06270
H366        H  0.12131447  0.38247076  0.15163451     0.07490
H367        H  0.11314129  0.46302707  0.08594314     0.08690
Cu368      Cu  0.18482296  0.38384305  0.12448385     0.44170
Cu369      Cu  0.17727689  0.45018673  0.06931052     0.41990
Cu370      Cu  0.23839568  0.40354990  0.06302466     0.43880
N371        N  0.22110549  0.36001930  0.12059724    -0.34930
N372        N  0.24022132  0.36630533  0.09791838    -0.29180
C373        C  0.26045922  0.34540852  0.10210270    -0.05280
C374        C  0.25372808  0.32532523  0.12879980     0.06940
C375        C  0.22876337  0.33532651  0.13996564     0.00730
H376        H  0.27888593  0.34525978  0.08727357     0.08380
H377        H  0.21693130  0.32533669  0.16061310     0.07460
N378        N  0.23023167  0.44251703  0.03204745    -0.36370
N379        N  0.20803348  0.45958877  0.03503557    -0.28550
C380        C  0.20760969  0.48166309  0.01029170    -0.03790
C381        C  0.23075392  0.47872017  0.99077124     0.04820
C382        C  0.24453607  0.45339309  0.00512973     0.02910
H383        H  0.19081546  0.49737339  0.00556423     0.08020
H384        H  0.26304568  0.44288022  0.99588848     0.06850
O385        O  0.28419998  0.78847514  0.71606702    -0.73190
O386        O  0.32917396  0.72074189  0.67262531    -0.74170
O387        O  0.32948522  0.78760031  0.67246413    -0.62790
O388        O  0.28378888  0.72073502  0.71622121    -0.71200
O389        O  0.25674035  0.72115339  0.67094305    -0.70760
O390        O  0.30247442  0.78819178  0.62714998    -0.62010
O391        O  0.30222885  0.72043151  0.62724326    -0.74520
O392        O  0.25704158  0.78822319  0.67088605    -0.73300
Cu393      Cu  0.30756185  0.75436848  0.69595952     1.04560
Cu394      Cu  0.27868018  0.75450506  0.64743153     1.04330
C395        C  0.26376640  0.79933623  0.70006850     0.93000
C396        C  0.32270622  0.70973536  0.64331841     0.92140
C397        C  0.32301517  0.79867544  0.64313953     0.84290
C398        C  0.26329065  0.71011075  0.70026126     0.90560
O399        O  0.75621323  0.78897991  0.68587585    -0.73190
O400        O  0.80154907  0.72085807  0.72861857    -0.74170
O401        O  0.80161574  0.78865438  0.72941176    -0.62790
O402        O  0.75610997  0.72186536  0.68507842    -0.71200
O403        O  0.78327320  0.72183970  0.63975713    -0.70760
O404        O  0.82863892  0.78845087  0.68395695    -0.62010
O405        O  0.82856394  0.72158277  0.68316174    -0.74520
O406        O  0.78337026  0.78959371  0.64055112    -0.73300
Cu407      Cu  0.77792724  0.75507021  0.70887222     1.04560
Cu408      Cu  0.80685882  0.75537976  0.66023925     1.04330
C409        C  0.76293358  0.80033867  0.65674396     0.93000
C410        C  0.82205151  0.71029825  0.71238975     0.92140
C411        C  0.82215135  0.79928657  0.71339193     0.84290
C412        C  0.76278023  0.71102447  0.65569666     0.90560
O413        O  0.30880825  0.22099225  0.21606104    -0.73190
O414        O  0.26350858  0.28869951  0.17300839    -0.74170
O415        O  0.26332443  0.22181340  0.17311640    -0.62790
O416        O  0.30890623  0.28864268  0.21627516    -0.71200
O417        O  0.33584861  0.28849351  0.17073852    -0.70760
O418        O  0.29027540  0.22110739  0.12758991    -0.62010
O419        O  0.29036219  0.28899914  0.12739003    -0.74520
O420        O  0.33585574  0.22132971  0.17062498    -0.73300
Cu421      Cu  0.28524163  0.25505539  0.19622606     1.04560
Cu422      Cu  0.31401957  0.25499330  0.14743892     1.04330
C423        C  0.32920443  0.21014577  0.19985493     0.93000
C424        C  0.26994102  0.29973698  0.14362847     0.92140
C425        C  0.26983393  0.21055997  0.14389577     0.84290
C426        C  0.32929615  0.29943288  0.20012775     0.90560
O427        O  0.83615875  0.22177990  0.18440901    -0.73190
O428        O  0.79068641  0.28912667  0.22854501    -0.74170
O429        O  0.79087673  0.22116317  0.22825487    -0.62790
O430        O  0.83595519  0.28884679  0.18464188    -0.71200
O431        O  0.80877024  0.28934101  0.13948769    -0.70760
O432        O  0.76386326  0.22172991  0.18294220    -0.62010
O433        O  0.76359293  0.28876096  0.18331734    -0.74520
O434        O  0.80903575  0.22169387  0.13919824    -0.73300
Cu435      Cu  0.81434905  0.25522758  0.20809772     1.04560
Cu436      Cu  0.78539086  0.25539428  0.15964701     1.04330
C437        C  0.82953409  0.21086263  0.15510248     0.93000
C438        C  0.77018005  0.29985995  0.21255354     0.92140
C439        C  0.77051272  0.21042940  0.21209833     0.84290
C440        C  0.82924360  0.30000505  0.15543346     0.90560
C441        C  0.02041767  0.42254379  0.12596962    -0.06370
C442        C  0.03398001  0.45128752  0.13050625    -0.17500
C443        C  0.06206134  0.45246905  0.13219939     0.10830
C444        C  0.07722593  0.42437839  0.12837059    -0.06300
C445        C  0.06368219  0.39544844  0.12520080    -0.17530
C446        C  0.03557303  0.39423422  0.12346206     0.10860
S447        S  0.07722247  0.49042583  0.14028737    -0.32500
S448        S  0.02070256  0.35623088  0.11484108    -0.32500
H449        H  0.00176883  0.36790463  0.09120156     0.28870
H450        H  0.09936870  0.47836915  0.15856969     0.28860
H451        H  0.02256530  0.47303302  0.13309273     0.19450
H452        H  0.07510359  0.37379851  0.12187498     0.19460
C453        C  0.23691860  0.52115802  0.89127854    -0.06370
C454        C  0.23028717  0.53995949  0.91962397    -0.17500
C455        C  0.23015896  0.52737838  0.95280329     0.10830
C456        C  0.23625848  0.49498093  0.95782516    -0.06300
C457        C  0.24484917  0.47685068  0.92963601    -0.17530
C458        C  0.24533227  0.48965103  0.89648642     0.10860
S459        S  0.22187087  0.55392642  0.98744783    -0.32500
S460        S  0.25588950  0.46436317  0.86173878    -0.32500
H461        H  0.26493533  0.48877969  0.84011873     0.28870
H462        H  0.23779634  0.53838560  0.01206600     0.28860
H463        H  0.22421549  0.56434044  0.91574033     0.19450
H464        H  0.24992902  0.45212621  0.93310625     0.19460
C465        C  0.85470323  0.51832752  0.90077942    -0.06370
C466        C  0.85136296  0.53773415  0.92967779    -0.17500
C467        C  0.85158398  0.52497105  0.96282089     0.10830
C468        C  0.85514542  0.49209611  0.96724975    -0.06300
C469        C  0.85644367  0.47246952  0.93832535    -0.17530
C470        C  0.85621350  0.48519664  0.90519931     0.10860
S471        S  0.84806473  0.55187840  0.99841300    -0.32500
S472        S  0.85853576  0.45799120  0.86971337    -0.32500
H473        H  0.84427792  0.47706592  0.84638275     0.28870
H474        H  0.83665579  0.52981929  0.02117184     0.28860
H475        H  0.84996526  0.56315106  0.92654480     0.19450
H476        H  0.85892895  0.44717071  0.94156367     0.19460
C477        C  0.01554900  0.58787495  0.73328892    -0.06370
C478        C  0.02856067  0.55846882  0.73058966    -0.17500
C479        C  0.05654861  0.55623784  0.72748009     0.10830
C480        C  0.07230510  0.58401390  0.72797907    -0.06300
C481        C  0.05925981  0.61350560  0.72926535    -0.17530
C482        C  0.03123609  0.61576786  0.73236830     0.10860
S483        S  0.07070153  0.51728555  0.72178134    -0.32500
S484        S  0.01729736  0.65479776  0.73816564    -0.32500
H485        H  0.99935081  0.64573476  0.76431471     0.28870
H486        H  0.09207148  0.52718952  0.70066729     0.28860
H487        H  0.01676523  0.53694948  0.73055908     0.19450
H488        H  0.07106589  0.63499644  0.72994798     0.19460
C489        C  0.02136906  0.08737523  0.12405960    -0.06370
C490        C  0.03474755  0.05813427  0.12571831    -0.17500
C491        C  0.06282714  0.05628519  0.12726992     0.10830
C492        C  0.07826918  0.08430048  0.12625303    -0.06300
C493        C  0.06491177  0.11360553  0.12598068    -0.17530
C494        C  0.03680076  0.11548845  0.12438886     0.10860
S495        S  0.07755064  0.01747601  0.13167920    -0.32500
S496        S  0.02234676  0.15437982  0.11962155    -0.32500
H497        H  0.00367172  0.14525902  0.09446539     0.28870
H498        H  0.09952355  0.02744700  0.15157416     0.28860
H499        H  0.02318408  0.03644425  0.12618100     0.19450
H500        H  0.07648190  0.13526463  0.12486246     0.19460
C501        C  0.23511974  0.99121667  0.89036165    -0.06370
C502        C  0.22612527  0.02259914  0.89369258    -0.17500
C503        C  0.22742707  0.03852123  0.92498409     0.10830
C504        C  0.23810072  0.02296559  0.95391366    -0.06300
C505        C  0.24872947  0.99242832  0.95034737    -0.17530
C506        C  0.24718046  0.97624826  0.91904775     0.10860
S507        S  0.21283776  0.07755293  0.92712583    -0.32500
S508        S  0.25812803  0.93562357  0.91891262    -0.32500
H509        H  0.23463661  0.92433266  0.90307596     0.28870
H510        H  0.23211045  0.08983505  0.94971659     0.28860
H511        H  0.21704315  0.03452040  0.87196497     0.19450
H512        H  0.25651282  0.98025372  0.97272718     0.19460
C513        C  0.85502638  0.99353663  0.89894899    -0.06370
C514        C  0.85147717  0.97435086  0.92801954    -0.17500
C515        C  0.85168608  0.98728434  0.96105548     0.10830
C516        C  0.85548084  0.02011371  0.96523691    -0.06300
C517        C  0.85699971  0.03956755  0.93616127    -0.17530
C518        C  0.85673028  0.02668028  0.90312462     0.10860
S519        S  0.84784751  0.96062937  0.99685848    -0.32500
S520        S  0.85912800  0.05372662  0.86746021    -0.32500
H521        H  0.84454478  0.03484318  0.84440649     0.28870
H522        H  0.83659152  0.98301635  0.01939673     0.28860
H523        H  0.84988602  0.94894224  0.92512399     0.19450
H524        H  0.85965169  0.06483973  0.93921964     0.19460
C525        C  0.01368473  0.92377828  0.72784977    -0.06370
C526        C  0.02667152  0.89439722  0.73122440    -0.17500
C527        C  0.05473798  0.89224044  0.73313391     0.10830
C528        C  0.07041246  0.92002532  0.73072773    -0.06300
C529        C  0.05745122  0.94921628  0.72598090    -0.17530
C530        C  0.02941347  0.95134299  0.72400080     0.10860
S531        S  0.06893327  0.85376172  0.74170323    -0.32500
S532        S  0.01507171  0.98976293  0.71548114    -0.32500
H533        H  0.99289684  0.97837455  0.69689063     0.28870
H534        H  0.08805604  0.86470521  0.76540780     0.28860
H535        H  0.01484792  0.87311079  0.73449715     0.19450
H536        H  0.06931523  0.97057085  0.72350152     0.19460
C537        C  0.51439270  0.58410624  0.62741723    -0.06370
C538        C  0.52737930  0.61327841  0.62293580    -0.17500
C539        C  0.55545321  0.61521771  0.62088335     0.10830
C540        C  0.57117593  0.58744448  0.62431565    -0.06300
C541        C  0.55819457  0.55846871  0.62999999    -0.17530
C542        C  0.53013144  0.55656679  0.63208442     0.10860
S543        S  0.56958794  0.65335677  0.61086477    -0.32500
S544        S  0.51575225  0.51851147  0.64191968    -0.32500
H545        H  0.49358461  0.53055998  0.66026242     0.28870
H546        H  0.58891452  0.64156055  0.58773958     0.28860
H547        H  0.51554392  0.63452475  0.61898729     0.19450
H548        H  0.57005778  0.53713866  0.63327022     0.19460
C549        C  0.73713074  0.52174788  0.46543491    -0.06370
C550        C  0.72785955  0.53950783  0.43752632    -0.17500
C551        C  0.72761736  0.52683173  0.40443785     0.10830
C552        C  0.73606459  0.49518744  0.39913181    -0.06300
C553        C  0.74726929  0.47832826  0.42675305    -0.17530
C554        C  0.74803130  0.49137964  0.45977037     0.10860
S555        S  0.71622335  0.55234473  0.37029679    -0.32500
S556        S  0.76196438  0.46767047  0.49387457    -0.32500
H557        H  0.76960539  0.49315362  0.51481413     0.28870
H558        H  0.73245649  0.53844575  0.34480884     0.28860
H559        H  0.71994226  0.56310305  0.44173675     0.19450
H560        H  0.75419872  0.45426123  0.42305816     0.19460
C561        C  0.35533109  0.51547030  0.45808660    -0.06370
C562        C  0.35327760  0.53486636  0.42896546    -0.17500
C563        C  0.35355038  0.52193908  0.39593697     0.10830
C564        C  0.35588792  0.48887908  0.39180070    -0.06300
C565        C  0.35590157  0.46935937  0.42090707    -0.17530
C566        C  0.35560357  0.48227331  0.45394676     0.10860
S567        S  0.35161036  0.54886511  0.36011733    -0.32500
S568        S  0.35616248  0.45519229  0.48970107    -0.32500
H569        H  0.34220733  0.47514162  0.51249744     0.28870
H570        H  0.33952883  0.52738219  0.33738802     0.28860
H571        H  0.35278715  0.56034478  0.43186690     0.19450
H572        H  0.35744774  0.44394086  0.41791631     0.19460
C573        C  0.52037340  0.42181585  0.22924833    -0.06370
C574        C  0.53392034  0.45088403  0.22859013    -0.17500
C575        C  0.56199852  0.45234501  0.22756014     0.10830
C576        C  0.57723623  0.42408172  0.22806381    -0.06300
C577        C  0.56375154  0.39497360  0.22703684    -0.17530
C578        C  0.53561635  0.39347470  0.22813231     0.10860
S579        S  0.57702383  0.49103696  0.22471854    -0.32500
S580        S  0.52086677  0.35469754  0.23142633    -0.32500
H581        H  0.50220904  0.36331877  0.25696377     0.28870
H582        H  0.59942369  0.48122765  0.20529948     0.28860
H583        H  0.52249798  0.47275210  0.22868452     0.19450
H584        H  0.57520092  0.37314037  0.22769932     0.19460
C585        C  0.57681462  0.09005950  0.23281706    -0.06370
C586        C  0.56424907  0.06042148  0.23494335    -0.17500
C587        C  0.53623077  0.05738073  0.23293657     0.10830
C588        C  0.52012168  0.08474571  0.22911696    -0.06300
C589        C  0.53275730  0.11419907  0.22488474    -0.17530
C590        C  0.56076448  0.11723783  0.22706140     0.10860
S591        S  0.52160256  0.01827441  0.23372449    -0.32500
S592        S  0.57422008  0.15672447  0.22513835    -0.32500
H593        H  0.59169959  0.15247761  0.25310067     0.28870
H594        H  0.54551406  0.00132176  0.23980136     0.28860
H595        H  0.57654839  0.03948620  0.23830641     0.19450
H596        H  0.52066976  0.13537199  0.22188148     0.19460
C597        C  0.73792191  0.99062612  0.46746543    -0.06370
C598        C  0.72952412  0.97269064  0.43931665    -0.17500
C599        C  0.72941129  0.98549118  0.40626368     0.10830
C600        C  0.73723244  0.01732375  0.40121741    -0.06300
C601        C  0.74765790  0.03439739  0.42907057    -0.17530
C602        C  0.74817508  0.02130122  0.46210565     0.10860
S603        S  0.71874397  0.96003504  0.37180733    -0.32500
S604        S  0.76081663  0.04536644  0.49661172    -0.32500
H605        H  0.76861624  0.02009212  0.51787881     0.28870
H606        H  0.73462974  0.97465100  0.34647334     0.28860
H607        H  0.72205373  0.94890472  0.44331348     0.19450
H608        H  0.75403269  0.05866240  0.42551732     0.19460
C609        C  0.35317695  0.99309057  0.45684078    -0.06370
C610        C  0.34860947  0.97432225  0.42774614    -0.17500
C611        C  0.34859865  0.98758709  0.39483355     0.10830
C612        C  0.35319111  0.02029168  0.39084968    -0.06300
C613        C  0.35553370  0.03942343  0.42000597    -0.17530
C614        C  0.35544704  0.02622636  0.45291827     0.10860
S615        S  0.34373672  0.96146635  0.35885664    -0.32500
S616        S  0.35893480  0.05284167  0.48873754    -0.32500
H617        H  0.34447742  0.03402244  0.51210859     0.28870
H618        H  0.33310789  0.98453428  0.33664294     0.28860
H619        H  0.34654532  0.94893969  0.43045300     0.19450
H620        H  0.35878638  0.06461702  0.41706027     0.19460
C621        C  0.51403709  0.92603280  0.62703518    -0.06370
C622        C  0.52746229  0.89676269  0.62673741    -0.17500
C623        C  0.55558585  0.89496727  0.62537967     0.10830
C624        C  0.57094882  0.92312401  0.62523306    -0.06300
C625        C  0.55750533  0.95231918  0.62697554    -0.17530
C626        C  0.52941187  0.95408136  0.62837821     0.10860
S627        S  0.57018577  0.85614103  0.62070673    -0.32500
S628        S  0.51458112  0.99280618  0.63305340    -0.32500
H629        H  0.49249173  0.98257624  0.65272888     0.28870
H630        H  0.58905743  0.86538172  0.59571711     0.28860
H631        H  0.51596178  0.87506966  0.62542591     0.19450
H632        H  0.56902788  0.97403281  0.62761639     0.19460
loop_ 
_geom_bond_atom_site_label_1 
_geom_bond_atom_site_label_2 
_geom_bond_distance 
_geom_bond_site_symmetry_2 
_ccdc_geom_bond_type 
N1            N2   1.320       .  A
N1            C5   1.344       .  A
N1           Cu9   2.071       .  S
N2            C3   1.346       .  A
N2           Cu8   2.071       .  S
C3            C4   1.386       .  A
C3            H6   1.082       .  S
C4            C5   1.386       .  A
C4          C621   1.483       .  S
C5            H7   1.081       .  S
Cu8          N11   2.071       .  S
Cu9          N19   2.071       .  S
Cu10         N12   2.077       .  S
Cu10         N18   2.077       .  S
N11          N12   1.323       .  A
N11          C15   1.343       .  A
N12          C13   1.346       .  A
C13          C14   1.383       .  A
C13          H16   1.082       .  S
C14          C15   1.381       .  A
C14         C397   1.466       .  S
C15          H17   1.082       .  S
N18          N19   1.322       .  A
N18          C22   1.347       .  A
N19          C20   1.343       .  A
C20          C21   1.383       .  A
C20          H23   1.081       .  S
C21          C22   1.385       .  A
C21         C609   1.478       .  S
C22          H24   1.082       .  S
N25          N26   1.321       .  A
N25          C29   1.344       .  A
N25         Cu33   2.076       .  S
N26          C27   1.346       .  A
N26         Cu32   2.070       .  S
C27          C28   1.386       .  A
C27          H30   1.081       .  S
C28          C29   1.385       .  A
C28         C624   1.483       .  S
C29          H31   1.082       .  S
Cu32         N35   2.070       .  S
Cu33         N43   2.075       .  S
Cu34         N36   2.074       .  S
Cu34         N42   2.074       .  S
N35          N36   1.323       .  A
N35          C39   1.344       .  A
N36          C37   1.345       .  A
C37          C38   1.382       .  A
C37          H40   1.082       .  S
C38          C39   1.381       .  A
C38         C409   1.466       .  S
C39          H41   1.082       .  S
N42          N43   1.322       .  A
N42          C46   1.346       .  A
N43          C44   1.344       .  A
C44          C45   1.382       .  A
C44          H47   1.082       .  S
C45          C46   1.383       .  A
C45         C597   1.471       .  S
C46          H48   1.082       .  S
N49          N50   1.319       .  A
N49          C53   1.341       .  A
N49         Cu57   2.062       .  S
N50          C51   1.347       .  A
N50         Cu56   2.070       .  S
C51          C52   1.388       .  A
C51          H54   1.081       .  S
C52          C53   1.384       .  A
C52         C585   1.483       .  S
C53          H55   1.082       .  S
Cu56         N59   2.072       .  S
Cu57         N67   2.062       .  S
Cu58         N60   2.083       .  S
Cu58         N66   2.082       .  S
N59          N60   1.325       .  A
N59          C63   1.343       .  A
N60          C61   1.347       .  A
C61          C62   1.383       .  A
C61          H64   1.082       .  S
C62          C63   1.379       .  A
C62         C439   1.466       .  S
C63          H65   1.082       .  S
N66          N67   1.321       .  A
N66          C70   1.349       .  A
N67          C68   1.340       .  A
C68          C69   1.382       .  A
C68          H71   1.081       .  S
C69          C70   1.388       .  A
C69         C600   1.481       .  S
C70          H72   1.082       .  S
N73          N74   1.320       .  A
N73          C77   1.343       .  A
N73         Cu81   2.072       .  S
N74          C75   1.346       .  A
N74         Cu80   2.071       .  S
C75          C76   1.387       .  A
C75          H78   1.082       .  S
C76          C77   1.387       .  A
C76         C588   1.485       .  S
C77          H79   1.081       .  S
Cu80         N83   2.072       .  S
Cu81         N91   2.071       .  S
Cu82         N84   2.074       .  S
Cu82         N90   2.073       .  S
N83          N84   1.323       .  A
N83          C87   1.344       .  A
N84          C85   1.345       .  A
C85          C86   1.381       .  A
C85          H88   1.082       .  S
C86          C87   1.381       .  A
C86         C423   1.466       .  S
C87          H89   1.082       .  S
N90          N91   1.322       .  A
N90          C94   1.346       .  A
N91          C92   1.343       .  A
C92          C93   1.381       .  A
C92          H95   1.082       .  S
C93          C94   1.383       .  A
C93         C612   1.472       .  S
C94          H96   1.082       .  S
N97          N98   1.321       .  A
N97         C101   1.343       .  A
N97        Cu105   2.073       .  S
N98          C99   1.345       .  A
N98        Cu104   2.066       .  S
C99         C100   1.385       .  A
C99         H102   1.081       .  S
C100        C101   1.385       .  A
C100        C573   1.482       .  S
C101        H103   1.082       .  S
Cu104       N107   2.066       .  S
Cu105       N115   2.072       .  S
Cu106       N108   2.077       .  S
Cu106       N114   2.077       .  S
N107        N108   1.323       .  A
N107        C111   1.344       .  A
N108        C109   1.345       .  A
C109        C110   1.383       .  A
C109        H112   1.082       .  S
C110        C111   1.380       .  A
C110        C426   1.466       .  S
C111        H113   1.082       .  S
N114        N115   1.322       .  A
N114        C118   1.347       .  A
N115        C116   1.344       .  A
C116        C117   1.382       .  A
C116        H119   1.082       .  S
C117        C118   1.384       .  A
C117        C564   1.475       .  S
C118        H120   1.082       .  S
N121        N122   1.319       .  A
N121        C125   1.342       .  A
N121       Cu129   2.062       .  S
N122        C123   1.346       .  A
N122       Cu128   2.070       .  S
C123        C124   1.387       .  A
C123        H126   1.082       .  S
C124        C125   1.384       .  A
C124        C576   1.480       .  S
C125        H127   1.081       .  S
Cu128       N131   2.071       .  S
Cu129       N139   2.063       .  S
Cu130       N132   2.086       .  S
Cu130       N138   2.085       .  S
N131        N132   1.325       .  A
N131        C135   1.343       .  A
N132        C133   1.348       .  A
C133        C134   1.384       .  A
C133        H136   1.082       .  S
C134        C135   1.379       .  A
C134        C438   1.467       .  S
C135        H137   1.082       .  S
N138        N139   1.321       .  A
N138        C142   1.349       .  A
N139        C140   1.341       .  A
C140        C141   1.383       .  A
C140        H143   1.081       .  S
C141        C142   1.389       .  A
C141        C552   1.483       .  S
C142        H144   1.082       .  S
N145        N146   1.321       .  A
N145        C149   1.345       .  A
N145       Cu153   2.076       .  S
N146        C147   1.345       .  A
N146       Cu152   2.066       .  S
C147        C148   1.384       .  A
C147        H150   1.082       .  S
C148        C149   1.386       .  A
C148        C537   1.481       .  S
C149        H151   1.081       .  S
Cu152       N155   2.066       .  S
Cu153       N163   2.076       .  S
Cu154       N156   2.076       .  S
Cu154       N162   2.076       .  S
N155        N156   1.323       .  A
N155        C159   1.342       .  A
N156        C157   1.346       .  A
C157        C158   1.383       .  A
C157        H160   1.082       .  S
C158        C159   1.380       .  A
C158        C396   1.465       .  S
C159        H161   1.082       .  S
N162        N163   1.323       .  A
N162        C166   1.346       .  A
N163        C164   1.344       .  A
C164        C165   1.383       .  A
C164        H167   1.081       .  S
C165        C166   1.384       .  A
C165        C561   1.477       .  S
C166        H168   1.082       .  S
N169        N170   1.321       .  A
N169        C173   1.345       .  A
N169       Cu177   2.076       .  S
N170        C171   1.345       .  A
N170       Cu176   2.070       .  S
C171        C172   1.385       .  A
C171        H174   1.082       .  S
C172        C173   1.384       .  A
C172        C540   1.480       .  S
C173        H175   1.082       .  S
Cu176       N179   2.070       .  S
Cu177       N187   2.076       .  S
Cu178       N180   2.076       .  S
Cu178       N186   2.075       .  S
N179        N180   1.323       .  A
N179        C183   1.344       .  A
N180        C181   1.345       .  A
C181        C182   1.383       .  A
C181        H184   1.082       .  S
C182        C183   1.381       .  A
C182        C412   1.466       .  S
C183        H185   1.082       .  S
N186        N187   1.322       .  A
N186        C190   1.346       .  A
N187        C188   1.344       .  A
C188        C189   1.382       .  A
C188        H191   1.082       .  S
C189        C190   1.383       .  A
C189        C549   1.471       .  S
C190        H192   1.082       .  S
N193        N194   1.320       .  A
N193        C197   1.344       .  A
N193       Cu201   2.073       .  S
N194        C195   1.345       .  A
N194       Cu200   2.066       .  S
C195        C196   1.385       .  A
C195        H198   1.082       .  S
C196        C197   1.386       .  A
C196        C525   1.480   1_655  S
C197        H199   1.082       .  S
Cu200       N203   2.066       .  S
Cu201       N211   2.073       .  S
Cu202       N204   2.079       .  S
Cu202       N210   2.079       .  S
N203        N204   1.323       .  A
N203        C207   1.342       .  A
N204        C205   1.347       .  A
C205        C206   1.384       .  A
C205        H208   1.082       .  S
C206        C207   1.380       .  A
C206        C411   1.466       .  S
C207        H209   1.082       .  S
N210        N211   1.323       .  A
N210        C214   1.347       .  A
N211        C212   1.343       .  A
C212        C213   1.383       .  A
C212        H215   1.082       .  S
C213        C214   1.385       .  A
C213        C513   1.478       .  S
C214        H216   1.082       .  S
N217        N218   1.320       .  A
N217        C221   1.343       .  A
N217       Cu225   2.066       .  S
N218        C219   1.346       .  A
N218       Cu224   2.068       .  S
C219        C220   1.385       .  A
C219        H222   1.082       .  S
C220        C221   1.383       .  A
C220        C528   1.478       .  S
C221        H223   1.082       .  S
Cu224       N227   2.069       .  S
Cu225       N235   2.066       .  S
Cu226       N228   2.079       .  S
Cu226       N234   2.077       .  S
N227        N228   1.324       .  A
N227        C231   1.343       .  A
N228        C229   1.346       .  A
C229        C230   1.382       .  A
C229        H232   1.082       .  S
C230        C231   1.380       .  A
C230        C395   1.465       .  S
C231        H233   1.082       .  S
N234        N235   1.321       .  A
N234        C238   1.348       .  A
N235        C236   1.340       .  A
C236        C237   1.383       .  A
C236        H239   1.082       .  S
C237        C238   1.389       .  A
C237        C501   1.484       .  S
C238        H240   1.081       .  S
N241        N242   1.321       .  A
N241        C245   1.344       .  A
N241       Cu249   2.076       .  S
N242        C243   1.345       .  A
N242       Cu248   2.069       .  S
C243        C244   1.386       .  A
C243        H246   1.081       .  S
C244        C245   1.385       .  A
C244        C489   1.483   1_655  S
C245        H247   1.082       .  S
Cu248       N251   2.069       .  S
Cu249       N259   2.075       .  S
Cu250       N252   2.075       .  S
Cu250       N258   2.075       .  S
N251        N252   1.323       .  A
N251        C255   1.344       .  A
N252        C253   1.345       .  A
C253        C254   1.383       .  A
C253        H256   1.082       .  S
C254        C255   1.381       .  A
C254        C437   1.466       .  S
C255        H257   1.082       .  S
N258        N259   1.322       .  A
N258        C262   1.346       .  A
N259        C260   1.344       .  A
C260        C261   1.382   1_554  A
C260        H263   1.082       .  S
C261        C262   1.383   1_556  A
C261        C516   1.474       .  S
C262        H264   1.082       .  S
N265        N266   1.320       .  A
N265        C269   1.343       .  A
N265       Cu273   2.070       .  S
N266        C267   1.346       .  A
N266       Cu272   2.073       .  S
C267        C268   1.387       .  A
C267        H270   1.082       .  S
C268        C269   1.385       .  A
C268        C492   1.483       .  S
C269        H271   1.082       .  S
Cu272       N275   2.074       .  S
Cu273       N283   2.071       .  S
Cu274       N276   2.073       .  S
Cu274       N282   2.072       .  S
N275        N276   1.324       .  A
N275        C279   1.343       .  A
N276        C277   1.346       .  A
C277        C278   1.382       .  A
C277        H280   1.082       .  S
C278        C279   1.381       .  A
C278        C425   1.465       .  S
C279        H281   1.082       .  S
N282        N283   1.322       .  A
N282        C286   1.347       .  A
N283        C284   1.342       .  A
C284        C285   1.380   1_554  A
C284        H287   1.082       .  S
C285        C286   1.383   1_556  A
C285        C504   1.471       .  S
C286        H288   1.082   1_554  S
N289        N290   1.321       .  A
N289        C293   1.343       .  A
N289       Cu297   2.071       .  S
N290        C291   1.346       .  A
N290       Cu296   2.070       .  S
C291        C292   1.387       .  A
C291        H294   1.081       .  S
C292        C293   1.385       .  A
C292        C477   1.483   1_655  S
C293        H295   1.082       .  S
Cu296       N299   2.071       .  S
Cu297       N307   2.071       .  S
Cu298       N300   2.077       .  S
Cu298       N306   2.076       .  S
N299        N300   1.323       .  A
N299        C303   1.343       .  A
N300        C301   1.346       .  A
C301        C302   1.383       .  A
C301        H304   1.082       .  S
C302        C303   1.381       .  A
C302        C410   1.466       .  S
C303        H305   1.082       .  S
N306        N307   1.322       .  A
N306        C310   1.347       .  A
N307        C308   1.343       .  A
C308        C309   1.383       .  A
C308        H311   1.082       .  S
C309        C310   1.385       .  A
C309        C465   1.477       .  S
C310        H312   1.082       .  S
N313        N314   1.321       .  A
N313        C317   1.344       .  A
N313       Cu321   2.076       .  S
N314        C315   1.346       .  A
N314       Cu320   2.072       .  S
C315        C316   1.386       .  A
C315        H318   1.082       .  S
C316        C317   1.386       .  A
C316        C480   1.483       .  S
C317        H319   1.081       .  S
Cu320       N323   2.072       .  S
Cu321       N331   2.076       .  S
Cu322       N324   2.074       .  S
Cu322       N330   2.073       .  S
N323        N324   1.323       .  A
N323        C327   1.344       .  A
N324        C325   1.345       .  A
C325        C326   1.382       .  A
C325        H328   1.082       .  S
C326        C327   1.382       .  A
C326        C398   1.467       .  S
C327        H329   1.082       .  S
N330        N331   1.322       .  A
N330        C334   1.346       .  A
N331        C332   1.344       .  A
C332        C333   1.382       .  A
C332        H335   1.082       .  S
C333        C334   1.382       .  A
C333        C453   1.472       .  S
C334        H336   1.082       .  S
N337        N338   1.321       .  A
N337        C341   1.345       .  A
N337       Cu345   2.076       .  S
N338        C339   1.345       .  A
N338       Cu344   2.065       .  S
C339        C340   1.384       .  A
C339        H342   1.081       .  S
C340        C341   1.385       .  A
C340        C441   1.480   1_655  S
C341        H343   1.082       .  S
Cu344       N347   2.065       .  S
Cu345       N355   2.076       .  S
Cu346       N348   2.074       .  S
Cu346       N354   2.074       .  S
N347        N348   1.322       .  A
N347        C351   1.343       .  A
N348        C349   1.345       .  A
C349        C350   1.383       .  A
C349        H352   1.082       .  S
C350        C351   1.380       .  A
C350        C440   1.465       .  S
C351        H353   1.082       .  S
N354        N355   1.323       .  A
N354        C358   1.346       .  A
N355        C356   1.344       .  A
C356        C357   1.383       .  A
C356        H359   1.082       .  S
C357        C358   1.383       .  A
C357        C468   1.474   1_554  S
C358        H360   1.082       .  S
N361        N362   1.320       .  A
N361        C365   1.343       .  A
N361       Cu369   2.067       .  S
N362        C363   1.346       .  A
N362       Cu368   2.068       .  S
C363        C364   1.386       .  A
C363        H366   1.082       .  S
C364        C365   1.384       .  A
C364        C444   1.479       .  S
C365        H367   1.082       .  S
Cu368       N371   2.068       .  S
Cu369       N379   2.067       .  S
Cu370       N372   2.082       .  S
Cu370       N378   2.081       .  S
N371        N372   1.324       .  A
N371        C375   1.343       .  A
N372        C373   1.347       .  A
C373        C374   1.384       .  A
C373        H376   1.082       .  S
C374        C375   1.379       .  A
C374        C424   1.466       .  S
C375        H377   1.082       .  S
N378        N379   1.322       .  A
N378        C382   1.348       .  A
N379        C380   1.342       .  A
C380        C381   1.383   1_554  A
C380        H383   1.081       .  S
C381        C382   1.388   1_556  A
C381        C456   1.482       .  S
C382        H384   1.082   1_554  S
O385       Cu393   2.008       .  S
O385        C395   1.277       .  A
O386       Cu393   1.998       .  S
O386        C396   1.276       .  A
O387       Cu393   2.000       .  S
O387        C397   1.277       .  A
O388       Cu393   2.011       .  S
O388        C398   1.278       .  A
O389       Cu394   2.005       .  S
O389        C398   1.277       .  A
O390       Cu394   2.014       .  S
O390        C397   1.278       .  A
O391       Cu394   2.013       .  S
O391        C396   1.278       .  A
O392       Cu394   2.004       .  S
O392        C395   1.277       .  A
Cu393      Cu394   2.378       .  S
O399       Cu407   2.004       .  S
O399        C409   1.277       .  A
O400       Cu407   2.014       .  S
O400        C410   1.278       .  A
O401       Cu407   2.015       .  S
O401        C411   1.278       .  A
O402       Cu407   2.006       .  S
O402        C412   1.277       .  A
O403       Cu408   2.010       .  S
O403        C412   1.277       .  A
O404       Cu408   1.999       .  S
O404        C411   1.277       .  A
O405       Cu408   1.999       .  S
O405        C410   1.276       .  A
O406       Cu408   2.009       .  S
O406        C409   1.277       .  A
Cu407      Cu408   2.377       .  S
O413       Cu421   2.009       .  S
O413        C423   1.278       .  A
O414       Cu421   2.001       .  S
O414        C424   1.277       .  A
O415       Cu421   1.997       .  S
O415        C425   1.276       .  A
O416       Cu421   2.007       .  S
O416        C426   1.277       .  A
O417       Cu422   2.006       .  S
O417        C426   1.277       .  A
O418       Cu422   2.015       .  S
O418        C425   1.278       .  A
O419       Cu422   2.013       .  S
O419        C424   1.278       .  A
O420       Cu422   2.003       .  S
O420        C423   1.277       .  A
Cu421      Cu422   2.377       .  S
O427       Cu435   2.004       .  S
O427        C437   1.277       .  A
O428       Cu435   2.015       .  S
O428        C438   1.278       .  A
O429       Cu435   2.014       .  S
O429        C439   1.278       .  A
O430       Cu435   2.003       .  S
O430        C440   1.277       .  A
O431       Cu436   2.008       .  S
O431        C440   1.277       .  A
O432       Cu436   1.999       .  S
O432        C439   1.277       .  A
O433       Cu436   2.001       .  S
O433        C438   1.277       .  A
O434       Cu436   2.009       .  S
O434        C437   1.277       .  A
Cu435      Cu436   2.377       .  S
C441        C442   1.403       .  A
C441        C446   1.416       .  A
C442        C443   1.398       .  A
C442        H451   1.084       .  S
C443        C444   1.413       .  A
C443        S447   1.803       .  S
C444        C445   1.403       .  A
C445        C446   1.400       .  A
C445        H452   1.083       .  S
C446        S448   1.803       .  S
S447        H450   1.407       .  S
S448        H449   1.407       .  S
C453        C454   1.400       .  A
C453        C458   1.410       .  A
C454        C455   1.398       .  A
C454        H463   1.084       .  S
C455        C456   1.416       .  A
C455        S459   1.803       .  S
C456        C457   1.406       .  A
C457        C458   1.401       .  A
C457        H464   1.083       .  S
C458        S460   1.803       .  S
S459        H462   1.407   1_556  S
S460        H461   1.406       .  S
C465        C466   1.404       .  A
C465        C470   1.413       .  A
C466        C467   1.400       .  A
C466        H475   1.083       .  S
C467        C468   1.411       .  A
C467        S471   1.803       .  S
C468        C469   1.402       .  A
C469        C470   1.399       .  A
C469        H476   1.084       .  S
C470        S472   1.804       .  S
S471        H474   1.406   1_556  S
S472        H473   1.406       .  S
C477        C478   1.404       .  A
C477        C482   1.416       .  A
C478        C479   1.399       .  A
C478        H487   1.084       .  S
C479        C480   1.413       .  A
C479        S483   1.803       .  S
C480        C481   1.405       .  A
C481        C482   1.401       .  A
C481        H488   1.083       .  S
C482        S484   1.802       .  S
S483        H486   1.407       .  S
S484        H485   1.407   1_455  S
C489        C490   1.404       .  A
C489        C494   1.416       .  A
C490        C491   1.399       .  A
C490        H499   1.084       .  S
C491        C492   1.414       .  A
C491        S495   1.803       .  S
C492        C493   1.404       .  A
C493        C494   1.401       .  A
C493        H500   1.083       .  S
C494        S496   1.802       .  S
S495        H498   1.407       .  S
S496        H497   1.407       .  S
C501        C502   1.405   1_565  A
C501        C506   1.418       .  A
C502        C503   1.396       .  A
C502        H511   1.084       .  S
C503        C504   1.409       .  A
C503        S507   1.803       .  S
C504        C505   1.401   1_545  A
C505        C506   1.402       .  A
C505        H512   1.084       .  S
C506        S508   1.800       .  S
S507        H510   1.404       .  S
S508        H509   1.407       .  S
C513        C514   1.404       .  A
C513        C518   1.414   1_565  A
C514        C515   1.400       .  A
C514        H523   1.083       .  S
C515        C516   1.411   1_565  A
C515        S519   1.803       .  S
C516        C517   1.402       .  A
C517        C518   1.399       .  A
C517        H524   1.084       .  S
C518        S520   1.803       .  S
S519        H522   1.406   1_556  S
S520        H521   1.407       .  S
C525        C526   1.404       .  A
C525        C530   1.413       .  A
C526        C527   1.400       .  A
C526        H535   1.083       .  S
C527        C528   1.414       .  A
C527        S531   1.803       .  S
C528        C529   1.403       .  A
C529        C530   1.398       .  A
C529        H536   1.084       .  S
C530        S532   1.803       .  S
S531        H534   1.407       .  S
S532        H533   1.407   1_455  S
C537        C538   1.404       .  A
C537        C542   1.413       .  A
C538        C539   1.400       .  A
C538        H547   1.083       .  S
C539        C540   1.415       .  A
C539        S543   1.803       .  S
C540        C541   1.403       .  A
C541        C542   1.399       .  A
C541        H548   1.084       .  S
C542        S544   1.803       .  S
S543        H546   1.407       .  S
S544        H545   1.407       .  S
C549        C550   1.400       .  A
C549        C554   1.410       .  A
C550        C551   1.398       .  A
C550        H559   1.084       .  S
C551        C552   1.416       .  A
C551        S555   1.804       .  S
C552        C553   1.406       .  A
C553        C554   1.402       .  A
C553        H560   1.083       .  S
C554        S556   1.803       .  S
S555        H558   1.407       .  S
S556        H557   1.406       .  S
C561        C562   1.404       .  A
C561        C566   1.413       .  A
C562        C563   1.400       .  A
C562        H571   1.083       .  S
C563        C564   1.412       .  A
C563        S567   1.803       .  S
C564        C565   1.403       .  A
C565        C566   1.400       .  A
C565        H572   1.084       .  S
C566        S568   1.803       .  S
S567        H570   1.406       .  S
S568        H569   1.406       .  S
C573        C574   1.403       .  A
C573        C578   1.417       .  A
C574        C575   1.397       .  A
C574        H583   1.084       .  S
C575        C576   1.413       .  A
C575        S579   1.803       .  S
C576        C577   1.404       .  A
C577        C578   1.400       .  A
C577        H584   1.083       .  S
C578        S580   1.802       .  S
S579        H582   1.407       .  S
S580        H581   1.407       .  S
C585        C586   1.404       .  A
C585        C590   1.415       .  A
C586        C587   1.401       .  A
C586        H595   1.082       .  S
C587        C588   1.413       .  A
C587        S591   1.808       .  S
C588        C589   1.406       .  A
C589        C590   1.401       .  A
C589        H596   1.083       .  S
C590        S592   1.801       .  S
S591        H594   1.407       .  S
S592        H593   1.407       .  S
C597        C598   1.400       .  A
C597        C602   1.410   1_565  A
C598        C599   1.397       .  A
C598        H607   1.084       .  S
C599        C600   1.415   1_565  A
C599        S603   1.804       .  S
C600        C601   1.405       .  A
C601        C602   1.402       .  A
C601        H608   1.083       .  S
C602        S604   1.803       .  S
S603        H606   1.407       .  S
S604        H605   1.406       .  S
C609        C610   1.404       .  A
C609        C614   1.414   1_565  A
C610        C611   1.400       .  A
C610        H619   1.083       .  S
C611        C612   1.410   1_565  A
C611        S615   1.803       .  S
C612        C613   1.401       .  A
C613        C614   1.399       .  A
C613        H620   1.084       .  S
C614        S616   1.803       .  S
S615        H618   1.406       .  S
S616        H617   1.407       .  S
C621        C622   1.404       .  A
C621        C626   1.414       .  A
C622        C623   1.400       .  A
C622        H631   1.083       .  S
C623        C624   1.416       .  A
C623        S627   1.802       .  S
C624        C625   1.404       .  A
C625        C626   1.399       .  A
C625        H632   1.084       .  S
C626        S628   1.803       .  S
S627        H630   1.407       .  S
S628        H629   1.407       .  S
