geometry optimzed in LAMMPS
_audit_creation_date              2020-11-30 
_audit_creation_method            'lammps2cif' 
_symmetry_space_group_name_H-M    'P1' 
_symmetry_Int_Tables_number       1 
_symmetry_cell_setting            triclinic 
loop_ 
_symmetry_equiv_pos_as_xyz 
  x,y,z 
_cell_length_a                    39.42956803939424 
_cell_length_b                    39.46427278486423 
_cell_length_c                    39.39785195767622 
_cell_angle_alpha                 89.9234926833898 
_cell_angle_beta                  90.02754313673876 
_cell_angle_gamma                 90.16868487988823 
loop_ 
_atom_site_label 
_atom_site_type_symbol 
_atom_site_fract_x 
_atom_site_fract_y 
_atom_site_fract_z 
_atom_site_charge 
N1          N  0.44924970  0.64113806  0.99601327    -0.27170
N2          N  0.43007087  0.66806010  0.00054714    -0.35030
C3          C  0.39746490  0.65783462  0.00367285     0.01170
C4          C  0.39662162  0.62266145  0.00141324     0.07190
C5          C  0.42991052  0.61327606  0.99600009    -0.05910
H6          H  0.37626319  0.67451280  0.00838725     0.07860
H7          H  0.43970810  0.58794004  0.99271871     0.09060
Cu8        Cu  0.45253048  0.71577231  0.00321973     0.44170
Cu9        Cu  0.50117945  0.64226540  0.99374225     0.41990
Cu10       Cu  0.54936517  0.71663492  0.00202421     0.43880
N11         N  0.48387862  0.75840570  0.00232029    -0.34560
N12         N  0.51754342  0.75869951  0.00183256    -0.28810
C13         C  0.52836802  0.79102641  0.00062512    -0.04920
C14         C  0.50039220  0.81196422  0.00029622     0.07300
C15         C  0.47267059  0.79054658  0.00143832     0.01100
H16         H  0.55473442  0.79867652  0.99997914     0.08750
H17         H  0.44621384  0.79774767  0.00155766     0.07830
N18         N  0.57218252  0.66925684  0.99945881    -0.36010
N19         N  0.55312238  0.64196060  0.99616423    -0.28190
C20         C  0.57284611  0.61457846  0.99416942    -0.03430
C21         C  0.60638420  0.62471920  0.99598817     0.05180
C22         C  0.60511247  0.65978821  0.99959146     0.03270
H23         H  0.56326231  0.58900472  0.99150505     0.08380
H24         H  0.62632408  0.67714522  0.00117739     0.07210
N25         N  0.72496323  0.46728112  0.00400537    -0.27170
N26         N  0.75243395  0.48623119  0.00121913    -0.35030
C27         C  0.74301438  0.51904956  0.99895442     0.01170
C28         C  0.70782443  0.52033987  0.99998003     0.07190
C29         C  0.69748495  0.48705931  0.00367139    -0.05910
H30         H  0.76027238  0.54009464  0.99527389     0.07860
H31         H  0.67174608  0.47763589  0.00512015     0.09060
Cu32       Cu  0.79990007  0.46364217  0.99862464     0.44170
Cu33       Cu  0.72511850  0.41522832  0.00435040     0.41990
Cu34       Cu  0.80005915  0.36735569  0.99739513     0.43880
N35         N  0.84244615  0.43256090  0.99797842    -0.34560
N36         N  0.84251350  0.39893740  0.99762090    -0.28810
C37         C  0.87480971  0.38809624  0.99799171    -0.04920
C38         C  0.89595066  0.41604039  0.99858291     0.07300
C39         C  0.87468723  0.44375732  0.99854165     0.01100
H40         H  0.88230482  0.36174312  0.99802080     0.08750
H41         H  0.88205073  0.47018421  0.99911685     0.07830
N42         N  0.75254182  0.34439955  0.99978268    -0.36010
N43         N  0.72507661  0.36321188  0.00241414    -0.28190
C44         C  0.69775130  0.34320577  0.00466410    -0.03430
C45         C  0.70818315  0.30982392  0.00396912     0.05180
C46         C  0.74323309  0.31140263  0.00032327     0.03270
H47         H  0.67207157  0.35252028  0.00663839     0.08380
H48         H  0.76062315  0.29028647  0.99912569     0.07210
N49         N  0.55178784  0.19121722  0.99429819    -0.27170
N50         N  0.57007207  0.16326551  0.99504345    -0.35030
C51         C  0.60320135  0.17180061  0.99730320     0.01170
C52         C  0.60546280  0.20689079  0.99838833     0.07190
C53         C  0.57238095  0.21816541  0.99637981    -0.05910
H54         H  0.62379725  0.15389754  0.99961318     0.07860
H55         H  0.56379327  0.24417013  0.99718905     0.09060
Cu56       Cu  0.54666560  0.11603965  0.99599514     0.44170
Cu57       Cu  0.49955134  0.19199824  0.99320855     0.41990
Cu58       Cu  0.45110642  0.11605516  0.99696449     0.43880
N59         N  0.51561222  0.07338364  0.99807981    -0.34560
N60         N  0.48197720  0.07328104  0.99834736    -0.28810
C61         C  0.47098062  0.04098364  0.99945233    -0.04920
C62         C  0.49889285  0.01989093  0.99989907     0.07300
C63         C  0.52670033  0.04121201  0.99904112     0.01100
H64         H  0.44457576  0.03344499  0.99965968     0.08750
H65         H  0.55312906  0.03391278  0.99882244     0.07830
N66         N  0.42860887  0.16371762  0.99664378    -0.36010
N67         N  0.44735090  0.19147117  0.99553094    -0.28190
C68         C  0.42725208  0.21866722  0.99758859    -0.03430
C69         C  0.39397980  0.20784008  0.00002353     0.05180
C70         C  0.39565530  0.17268414  0.99914878     0.03270
H71         H  0.43632138  0.24457224  0.99764677     0.08380
H72         H  0.37475822  0.15501037  0.00141228     0.07210
N73         N  0.27498976  0.46760330  0.99141561    -0.27170
N74         N  0.24777440  0.48620462  0.99683831    -0.35030
C75         C  0.25741232  0.51884795  0.00079044     0.01170
C76         C  0.29250675  0.52042897  0.99800359     0.07190
C77         C  0.30253631  0.48746026  0.99193912    -0.05910
H78         H  0.24040574  0.53942590  0.00684211     0.07860
H79         H  0.32821833  0.47830320  0.98910635     0.09060
Cu80       Cu  0.20030872  0.46355632  0.00084715     0.44170
Cu81       Cu  0.27476645  0.41558859  0.98758612     0.41990
Cu82       Cu  0.19984154  0.36786705  0.99976389     0.43880
N83         N  0.15752434  0.43261445  0.00235479    -0.34560
N84         N  0.15733321  0.39900665  0.00191739    -0.28810
C85         C  0.12499440  0.38807967  0.00228386    -0.04920
C86         C  0.10394499  0.41598430  0.00292953     0.07300
C87         C  0.12532873  0.44374644  0.00298669     0.01100
H88         H  0.11739974  0.36171845  0.00167529     0.08750
H89         H  0.11806470  0.47016423  0.00304277     0.07830
N90         N  0.24722367  0.34505047  0.99659188    -0.36010
N91         N  0.27472445  0.36359225  0.99181037    -0.28190
C92         C  0.30211509  0.34366353  0.99297501    -0.03430
C93         C  0.29163554  0.31076081  0.99892984     0.05180
C94         C  0.25650675  0.31236789  0.00068839     0.03270
H95         H  0.32790591  0.35269619  0.99033797     0.08380
H96         H  0.23921931  0.29169375  0.00598722     0.07210
N97         N  0.99617415  0.46795035  0.72566997    -0.27170
N98         N  0.99826107  0.48731215  0.75281459    -0.35030
C99         C  0.99839450  0.52009863  0.74277550     0.01170
C100        C  0.99619326  0.52100867  0.70743921     0.07190
C101        C  0.99511816  0.48729872  0.69785062    -0.05910
H102        H  0.99937231  0.54142384  0.75993955     0.07860
H103        H  0.99391255  0.47723468  0.67236086     0.09060
Cu104      Cu  0.00041785  0.46487677  0.80069830     0.44170
Cu105      Cu  0.99440643  0.41605783  0.72669127     0.41990
Cu106      Cu  0.00297758  0.36799284  0.80089108     0.43880
N107        N  0.00171706  0.43326639  0.84323815    -0.34560
N108        N  0.00265823  0.39963439  0.84326971    -0.28810
C109        C  0.00281565  0.38860308  0.87559024    -0.04920
C110        C  0.00195975  0.41638421  0.89682432     0.07300
C111        C  0.00128748  0.44422497  0.87555915     0.01100
H112        H  0.00331957  0.36221028  0.88304143     0.08750
H113        H  0.00032578  0.47058841  0.88299354     0.07830
N114        N  0.00068817  0.34517498  0.75331196    -0.36010
N115        N  0.99659255  0.36419744  0.72609111    -0.28190
C116        C  0.99710682  0.34476707  0.69834938    -0.03430
C117        C  0.00236574  0.31158702  0.70814290     0.05180
C118        C  0.00403284  0.31255911  0.74340357     0.03270
H119        H  0.99451596  0.35442008  0.67278715     0.08380
H120        H  0.00867962  0.29148132  0.76034488     0.07210
N121        N  0.01387004  0.64287625  0.55151984    -0.27170
N122        N  0.00464577  0.66913738  0.57000198    -0.35030
C123        C  0.99963966  0.65871135  0.60229334     0.01170
C124        C  0.00563623  0.62407912  0.60371754     0.07190
C125        C  0.01493529  0.61517124  0.57112095    -0.05910
H126        H  0.99050932  0.67464446  0.62263716     0.07860
H127        H  0.02069047  0.59005241  0.56186237     0.09060
Cu128      Cu  0.99715924  0.71612941  0.54733125     0.44170
Cu129      Cu  0.01884221  0.64401344  0.49953025     0.41990
Cu130      Cu  0.99700846  0.71639696  0.45141086     0.43880
N131        N  0.99532784  0.75880424  0.51626538    -0.34560
N132        N  0.99534764  0.75891905  0.48259442    -0.28810
C133        C  0.99584718  0.79120280  0.47161678    -0.04920
C134        C  0.99625304  0.81230011  0.49954719     0.07300
C135        C  0.99580601  0.79100565  0.52738096     0.01100
H136        H  0.99651525  0.79870939  0.44520095     0.08750
H137        H  0.99646211  0.79832317  0.55383163     0.07830
N138        N  0.00353850  0.66917028  0.42904369    -0.36010
N139        N  0.01236258  0.64283442  0.44770176    -0.28190
C140        C  0.01284271  0.61504009  0.42831773    -0.03430
C141        C  0.00394123  0.62396004  0.39558590     0.05180
C142        C  0.99838315  0.65870205  0.39679341     0.03270
H143        H  0.01822608  0.58984796  0.43771832     0.08380
H144        H  0.98966251  0.67477288  0.37633261     0.07210
N145        N  0.00866052  0.46595665  0.27626539    -0.27170
N146        N  0.00144077  0.48496851  0.24965813    -0.35030
C147        C  0.99735618  0.51729818  0.26009452     0.01170
C148        C  0.00177239  0.51824953  0.29508400     0.07190
C149        C  0.00940919  0.48527090  0.30414313    -0.05910
H150        H  0.99041250  0.53819115  0.24372800     0.07860
H151        H  0.01457501  0.47562971  0.32930524     0.09060
Cu152      Cu  0.99607106  0.46341577  0.20177798     0.44170
Cu153      Cu  0.01276309  0.41394932  0.27524362     0.41990
Cu154      Cu  0.99209257  0.36822221  0.20108173     0.43880
N155        N  0.99472801  0.43292759  0.15866340    -0.34560
N156        N  0.99330581  0.39935391  0.15851623    -0.28810
C157        C  0.99422115  0.38841072  0.12622849    -0.04920
C158        C  0.99628349  0.41626956  0.10510079     0.07300
C159        C  0.99648595  0.44404839  0.12641470     0.01100
H160        H  0.99375501  0.36204257  0.11874704     0.08750
H161        H  0.99819065  0.47042946  0.11908149     0.07830
N162        N  0.99852912  0.34443904  0.24763927    -0.36010
N163        N  0.00768100  0.36198674  0.27463688    -0.28190
C164        C  0.01175279  0.34090052  0.30096745    -0.03430
C165        C  0.00474035  0.30827754  0.29028534     0.05180
C166        C  0.99623708  0.31138273  0.25622094     0.03270
H167        H  0.01890000  0.34885526  0.32625862     0.08380
H168        H  0.98973575  0.29119131  0.23883566     0.07210
N169        N  0.99805457  0.19124990  0.44692941    -0.27170
N170        N  0.99733769  0.16304718  0.42896241    -0.35030
C171        C  0.99882545  0.17104465  0.39566948     0.01170
C172        C  0.00109785  0.20599523  0.39298919     0.07190
C173        C  0.00046972  0.21786549  0.42592196    -0.05910
H174        H  0.99962152  0.15284785  0.37517635     0.07860
H175        H  0.00218360  0.24399012  0.43406683     0.09060
Cu176      Cu  0.99749740  0.11611004  0.45275353     0.44170
Cu177      Cu  0.99744179  0.19246304  0.49919978     0.41990
Cu178      Cu  0.00182275  0.11660213  0.54811820     0.43880
N179        N  0.00004851  0.07359826  0.48379693    -0.34560
N180        N  0.00161577  0.07363502  0.51741770    -0.28810
C181        C  0.00257428  0.04137128  0.52846521    -0.04920
C182        C  0.00159385  0.02017595  0.50058195     0.07300
C183        C  0.00004825  0.04138825  0.47274988     0.01100
H184        H  0.00362975  0.03392889  0.55488564     0.08750
H185        H  0.99868307  0.03399698  0.44634617     0.07830
N186        N  0.00105877  0.16442046  0.57033398    -0.36010
N187        N  0.99929812  0.19202265  0.55145731    -0.28190
C188        C  0.00054523  0.21936228  0.57146361    -0.03430
C189        C  0.00330941  0.20883551  0.60483342     0.05180
C190        C  0.00336092  0.17364852  0.60327963     0.03270
H191        H  0.99992688  0.24518306  0.56221953     0.08380
H192        H  0.00609516  0.15614356  0.62423996     0.07210
N193        N  0.55237950  0.91408096  0.72402655    -0.27170
N194        N  0.57062098  0.91739769  0.75193994    -0.35030
C195        C  0.60382364  0.91700275  0.74355025     0.01170
C196        C  0.60622476  0.91260199  0.70869704     0.07190
C197        C  0.57311347  0.91118257  0.69729147    -0.05910
H198        H  0.62454098  0.91879801  0.76147593     0.07860
H199        H  0.56458572  0.90840382  0.67134415     0.09060
Cu200      Cu  0.54748430  0.91984883  0.79925571     0.44170
Cu201      Cu  0.50013586  0.91304508  0.72288654     0.41990
Cu202      Cu  0.45243523  0.91292746  0.79916283     0.43880
N203        N  0.51664264  0.91820475  0.84207540    -0.34560
N204        N  0.48310499  0.91566563  0.84201943    -0.28810
C205        C  0.47201720  0.91494147  0.87428472    -0.04920
C206        C  0.49977134  0.91698355  0.89557528     0.07300
C207        C  0.52761017  0.91901341  0.87439402     0.01100
H208        H  0.44566161  0.91285430  0.88165453     0.08750
H209        H  0.55396041  0.92080773  0.88187730     0.07830
N210        N  0.42948661  0.91277326  0.75171128    -0.36010
N211        N  0.44788086  0.91332074  0.72372444    -0.28190
C212        C  0.42732463  0.91554635  0.69675856    -0.03430
C213        C  0.39420180  0.91656316  0.70810546     0.05180
C214        C  0.39635512  0.91435003  0.74317674     0.03270
H215        H  0.43597709  0.91675548  0.67073345     0.08380
H216        H  0.37560174  0.91523038  0.76110112     0.07210
N217        N  0.72370192  0.91886076  0.44906547    -0.27170
N218        N  0.75125598  0.91714220  0.43015211    -0.35030
C219        C  0.74188713  0.91456769  0.39725162     0.01170
C220        C  0.70663996  0.91439352  0.39577492     0.07190
C221        C  0.69625187  0.91730280  0.42915630    -0.05910
H222        H  0.75935769  0.91201476  0.37626554     0.07860
H223        H  0.67045816  0.91808477  0.43847214     0.09060
Cu224      Cu  0.79914480  0.91715864  0.45244081     0.44170
Cu225      Cu  0.72360365  0.92151873  0.50123745     0.41990
Cu226      Cu  0.79989312  0.92180636  0.54803668     0.43880
N227        N  0.84216067  0.91783161  0.48322344    -0.34560
N228        N  0.84232200  0.91943683  0.51684680    -0.28810
C229        C  0.87461147  0.91942085  0.52782606    -0.04920
C230        C  0.89572643  0.91785718  0.49994783     0.07300
C231        C  0.87440515  0.91684962  0.47212084     0.01100
H232        H  0.88211731  0.92059404  0.55421947     0.08750
H233        H  0.88174766  0.91552911  0.44569822     0.07830
N234        N  0.75283312  0.92198703  0.57164056    -0.36010
N235        N  0.72470932  0.92126287  0.55347153    -0.28190
C236        C  0.69796329  0.91872460  0.57425241    -0.03430
C237        C  0.70959317  0.91808853  0.60729894     0.05180
C238        C  0.74462320  0.92036151  0.60487799     0.03270
H239        H  0.67189382  0.91678715  0.56586072     0.08380
H240        H  0.76273401  0.91932490  0.62548404     0.07210
N241        N  0.55145592  0.92703045  0.27434786    -0.27170
N242        N  0.56991932  0.91929939  0.24752804    -0.35030
C243        C  0.60229855  0.91431929  0.25755206     0.01170
C244        C  0.60379308  0.91868211  0.29248178     0.07190
C245        C  0.57116594  0.92706451  0.30201542    -0.05910
H246        H  0.62272327  0.90649563  0.24102556     0.07860
H247        H  0.56204156  0.93179584  0.32744932     0.09060
Cu248      Cu  0.54742665  0.91373412  0.20011958     0.44170
Cu249      Cu  0.49949051  0.93225463  0.27380792     0.41990
Cu250      Cu  0.45192599  0.91437485  0.19987854     0.43880
N251        N  0.51653386  0.91241597  0.15728509    -0.34560
N252        N  0.48290234  0.91263345  0.15724360    -0.28810
C253        C  0.47186095  0.91311133  0.12495602    -0.04920
C254        C  0.49972186  0.91333878  0.10375664     0.07300
C255        C  0.52758750  0.91277304  0.12499868     0.01100
H256        H  0.44545260  0.91383936  0.11752000     0.08750
H257        H  0.55400608  0.91316397  0.11758842     0.07830
N258        N  0.42914683  0.91967131  0.24706653    -0.36010
N259        N  0.44750255  0.92689040  0.27414787    -0.28190
C260        C  0.42759007  0.92652371  0.30166199    -0.03430
C261        C  0.39494260  0.91857327  0.29166418     0.05180
C262        C  0.39663934  0.91473898  0.25670812     0.03270
H263        H  0.43653761  0.93068224  0.32728209     0.08380
H264        H  0.37625914  0.90726578  0.23989080     0.07210
N265        N  0.27562219  0.91636719  0.44821794    -0.27170
N266        N  0.24794585  0.91572743  0.42938208    -0.35030
C267        C  0.25709291  0.91411304  0.39637507     0.01170
C268        C  0.29230983  0.91335970  0.39475996     0.07190
C269        C  0.30294599  0.91495221  0.42815467    -0.05910
H270        H  0.23948708  0.91247204  0.37537990     0.07860
H271        H  0.32880816  0.91488332  0.43734909     0.09060
Cu272      Cu  0.20021887  0.91516077  0.45194220     0.44170
Cu273      Cu  0.27585649  0.91748382  0.50041610     0.41990
Cu274      Cu  0.20002811  0.90991735  0.54758139     0.43880
N275        N  0.15737978  0.91380834  0.48290598    -0.34560
N276        N  0.15736721  0.91188346  0.51652042    -0.28810
C277        C  0.12510806  0.91194862  0.52759518    -0.04920
C278        C  0.10387075  0.91391756  0.49979056     0.07300
C279        C  0.12509480  0.91503271  0.47191322     0.01100
H280        H  0.11770479  0.91073869  0.55401163     0.08750
H281        H  0.11766050  0.91675872  0.44552906     0.07830
N282        N  0.24724733  0.91242838  0.57091933    -0.36010
N283        N  0.27502037  0.91621064  0.55260761    -0.28190
C284        C  0.30180167  0.91932251  0.57325462    -0.03430
C285        C  0.29064300  0.91727943  0.60642156     0.05180
C286        C  0.25578233  0.91268557  0.60413025     0.03270
H287        H  0.32763095  0.92292615  0.56467714     0.08380
H288        H  0.23791773  0.91087968  0.62488519     0.07210
O289        O  0.94889378  0.91717744  0.47177167    -0.72830
O290        O  0.05059243  0.91549257  0.47173463    -0.73810
O291        O  0.99853636  0.86555832  0.47153863    -0.62430
O292        O  0.00071024  0.96719100  0.47216863    -0.70840
O293        O  0.00121169  0.96684295  0.52854340    -0.70390
O294        O  0.99828745  0.86525980  0.52791736    -0.61640
O295        O  0.05070750  0.91474277  0.52810442    -0.74150
O296        O  0.94894513  0.91725907  0.52815115    -0.72930
Cu297      Cu  0.99971500  0.91638314  0.46983100     1.04560
Cu298      Cu  0.99981651  0.91602073  0.53015882     1.04330
C299        C  0.93292171  0.91742721  0.49995661     0.93370
C300        C  0.06665729  0.91476465  0.49988331     0.92510
C301        C  0.99778504  0.84943575  0.49966473     0.84650
C302        C  0.00123053  0.98300427  0.50044036     0.90930
O303        O  0.47151721  0.91496388  0.05057031    -0.72830
O304        O  0.47153662  0.91599468  0.94877378    -0.73810
O305        O  0.47187943  0.86480017  0.99945733    -0.62430
O306        O  0.47105122  0.96642874  0.00003501    -0.70840
O307        O  0.52737974  0.96699040  0.00026678    -0.70390
O308        O  0.52821562  0.86536450  0.99925845    -0.61640
O309        O  0.52786630  0.91688816  0.94884712    -0.74150
O310        O  0.52785524  0.91532691  0.05058050    -0.72930
Cu311      Cu  0.46951831  0.91555255  0.99969165     1.04560
Cu312      Cu  0.52980204  0.91618936  0.99972615     1.04330
C313        C  0.49969724  0.91464222  0.06657063     0.93370
C314        C  0.49971802  0.91662520  0.93279980     0.92510
C315        C  0.50015767  0.84910587  0.99952825     0.84650
C316        C  0.49909932  0.98270430  0.00016399     0.90930
O317        O  0.00107546  0.38814086  0.95009018    -0.72830
O318        O  0.99841538  0.38812656  0.05192589    -0.73810
O319        O  0.94905748  0.38806506  0.99972781    -0.62430
O320        O  0.05062441  0.38799839  0.00226836    -0.70840
O321        O  0.05088591  0.44428260  0.00212074    -0.70390
O322        O  0.94914208  0.44435381  0.99986910    -0.61640
O323        O  0.99880050  0.44440982  0.05187719    -0.74150
O324        O  0.00106558  0.44442187  0.95009226    -0.72930
Cu325      Cu  0.99981308  0.38611348  0.00101588     1.04560
Cu326      Cu  0.00000827  0.44634434  0.00099370     1.04330
C327        C  0.00136819  0.41630924  0.93407161     0.93370
C328        C  0.99798369  0.41627208  0.06790491     0.92510
C329        C  0.93311569  0.41617807  0.99942901     0.84650
C330        C  0.06675129  0.41610415  0.00248351     0.90930
C331        C  0.36603520  0.91246639  0.31474798    -0.05350
C332        C  0.33448428  0.92789614  0.30895399    -0.32780
C333        C  0.30898868  0.92684538  0.33394427     0.36470
C334        C  0.31513757  0.91021429  0.36505797    -0.05710
C335        C  0.34563124  0.89248489  0.36932773    -0.32680
C336        C  0.37095809  0.89363271  0.34466921     0.36380
H337        H  0.33031495  0.94235521  0.28593984     0.16750
O338        O  0.27948176  0.94440489  0.32880716    -0.60180
H339        H  0.35040581  0.87842001  0.39246887     0.16760
O340        O  0.40051931  0.87609094  0.34995187    -0.60270
H341        H  0.41262327  0.88848052  0.36821985     0.43760
H342        H  0.26485453  0.92896523  0.31535304     0.43710
C343        C  0.63246622  0.91277179  0.31596915    -0.05350
C344        C  0.66475782  0.92642018  0.30932564    -0.32780
C345        C  0.69032393  0.92551511  0.33429044     0.36470
C346        C  0.68350941  0.91085261  0.36626965    -0.05710
C347        C  0.65217897  0.89474062  0.37147653    -0.32680
C348        C  0.62679608  0.89574341  0.34685927     0.36380
H349        H  0.66957226  0.93938468  0.28554798     0.16750
O350        O  0.72072174  0.94128032  0.32809508    -0.60180
H351        H  0.64682748  0.88201985  0.39526985     0.16760
O352        O  0.59649409  0.87967773  0.35310366    -0.60270
H353        H  0.58529438  0.89313405  0.37113461     0.43760
H354        H  0.73437076  0.92442599  0.31544836     0.43710
C355        C  0.63674826  0.90980020  0.68712636    -0.05350
C356        C  0.66371026  0.93294729  0.69049517    -0.32780
C357        C  0.68943489  0.93449737  0.66580765     0.36470
C358        C  0.68805949  0.91282076  0.63746746    -0.05710
C359        C  0.66273918  0.88791668  0.63582529    -0.32680
C360        C  0.63728269  0.88622516  0.66035224     0.36380
H361        H  0.66368677  0.95118325  0.71102490     0.16750
O362        O  0.71385766  0.95919860  0.66797805    -0.60180
H363        H  0.66192482  0.87044452  0.61463318     0.16760
O364        O  0.61286982  0.86146153  0.65794680    -0.60270
H365        H  0.59897174  0.86755346  0.63786396     0.43760
H366        H  0.73237231  0.94894941  0.68154783     0.43710
C367        C  0.36397287  0.92095804  0.68640372    -0.05350
C368        C  0.33573491  0.89940246  0.68978648    -0.32780
C369        C  0.30996996  0.89933190  0.66505162     0.36470
C370        C  0.31256948  0.92095687  0.63665439    -0.05710
C371        C  0.33928890  0.94441215  0.63511429    -0.32680
C372        C  0.36484640  0.94450514  0.65958348     0.36380
H373        H  0.33469578  0.88122621  0.71039521     0.16750
O374        O  0.28417586  0.87607137  0.66730648    -0.60180
H375        H  0.34110322  0.96200944  0.61404662     0.16760
O376        O  0.39074797  0.96770161  0.65707429    -0.60270
H377        H  0.40443213  0.96048163  0.63725341     0.43760
H378        H  0.26687952  0.88683703  0.68199591     0.43710
C379        C  0.00675469  0.27765962  0.31188373    -0.05350
C380        C  0.03228379  0.27627868  0.33665287    -0.32780
C381        C  0.03195050  0.25129180  0.36166731     0.36470
C382        C  0.00567993  0.22715745  0.36247887    -0.05710
C383        C  0.98156984  0.22667408  0.33624717    -0.32680
C384        C  0.98200641  0.25178986  0.31088124     0.36380
H385        H  0.05200113  0.29545039  0.33737304     0.16750
O386        O  0.05663273  0.25159606  0.38621488    -0.60180
H387        H  0.96116831  0.20822667  0.33667521     0.16760
O388        O  0.95640163  0.25264199  0.28734433    -0.60270
H389        H  0.96346532  0.23663999  0.26931829     0.43760
H390        H  0.07410214  0.23548991  0.37811750     0.43710
C391        C  0.99855764  0.59964888  0.36747846    -0.05350
C392        C  0.98526652  0.56766625  0.37551365    -0.32780
C393        C  0.98472413  0.54161868  0.35165628     0.36470
C394        C  0.99767882  0.54714423  0.31876817    -0.05710
C395        C  0.00849783  0.57994675  0.30971235    -0.32680
C396        C  0.00885184  0.60624479  0.33385108     0.36380
H397        H  0.97584878  0.56247244  0.40083254     0.16750
O398        O  0.97078141  0.51096066  0.36058705    -0.60180
H399        H  0.01816813  0.58479827  0.28443311     0.16760
O400        O  0.02159359  0.63737579  0.32498904    -0.60270
H401        H  0.00224311  0.64962552  0.31463662     0.43760
H402        H  0.98625073  0.50126567  0.37791363     0.43710
C403        C  0.99940629  0.60016765  0.63202498    -0.05350
C404        C  0.01132649  0.60704325  0.66493154    -0.32780
C405        C  0.00924885  0.58226130  0.69064212     0.36470
C406        C  0.99490894  0.55020165  0.68346869    -0.05710
C407        C  0.98064027  0.54477524  0.65123885    -0.32680
C408        C  0.98314443  0.56905710  0.62565581     0.36380
H409        H  0.02366582  0.63101275  0.67028353     0.16750
O410        O  0.02315567  0.58898277  0.72180332    -0.60180
H411        H  0.96788356  0.52119442  0.64531643     0.16760
O412        O  0.96893661  0.56235655  0.59454575    -0.60270
H413        H  0.98338502  0.54459699  0.58421982     0.43760
H414        H  0.00554120  0.60191154  0.73418569     0.43710
C415        C  0.00723766  0.28270302  0.68467873    -0.05350
C416        C  0.99231024  0.25095101  0.69120196    -0.32780
C417        C  0.99240729  0.22542068  0.66623106     0.36470
C418        C  0.00741028  0.23177086  0.63433521    -0.05710
C419        C  0.02467722  0.26244029  0.62921018    -0.32680
C420        C  0.02464856  0.28772828  0.65385520     0.36380
H421        H  0.97906608  0.24655795  0.71489413     0.16750
O422        O  0.97563781  0.19555893  0.67234035    -0.60180
H423        H  0.03768277  0.26732846  0.60547640     0.16760
O424        O  0.04216759  0.31723375  0.64772845    -0.60270
H425        H  0.02985070  0.32869079  0.62900066     0.43760
H426        H  0.99210002  0.18127601  0.68486343     0.43710
C427        C  0.31432996  0.28143322  0.00414337    -0.05350
C428        C  0.30854858  0.25067399  0.98712369    -0.32780
C429        C  0.33338237  0.22510834  0.98717411     0.36470
C430        C  0.36434687  0.23040826  0.00432467    -0.05710
C431        C  0.36860883  0.25995643  0.02360238    -0.32680
C432        C  0.34404482  0.28531864  0.02357215     0.36380
H433        H  0.28571986  0.24727092  0.97218380     0.16750
O434        O  0.32832871  0.19650439  0.96810778    -0.60180
H435        H  0.39170335  0.26398765  0.03798065     0.16730
O436        O  0.34923436  0.31390327  0.04273971    -0.60270
H437        H  0.36794976  0.32639096  0.03141473     0.43760
H438        H  0.31507135  0.18101702  0.98288705     0.43710
C439        C  0.63536108  0.22888361  0.00395012    -0.05350
C440        C  0.63191958  0.25629217  0.02619443    -0.32780
C441        C  0.65664088  0.28156319  0.02794578     0.36470
C442        C  0.68555641  0.27992003  0.00700366    -0.05710
C443        C  0.69055506  0.25098577  0.98681390    -0.32680
C444        C  0.66565418  0.22536965  0.98533163     0.36380
H445        H  0.60933007  0.25873153  0.04165526     0.16750
O446        O  0.65243719  0.30775057  0.05045946    -0.60180
H447        H  0.71277657  0.24914667  0.97077178     0.16760
O448        O  0.66990497  0.19863970  0.96357503    -0.60270
H449        H  0.68271615  0.18151467  0.97678020     0.43760
H450        H  0.63254453  0.32067771  0.04213846     0.43710
C451        C  0.68504727  0.54966898  0.99499731    -0.05350
C452        C  0.69104109  0.58063752  0.01159870    -0.32780
C453        C  0.66658401  0.60659348  0.01078647     0.36470
C454        C  0.63580037  0.60151582  0.99319019    -0.05710
C455        C  0.63149018  0.57168677  0.97433470    -0.32680
C456        C  0.65548322  0.54589129  0.97532573     0.36380
H457        H  0.71383244  0.58404462  0.02659267     0.16750
O458        O  0.67200996  0.63556830  0.02917035    -0.60180
H459        H  0.60883141  0.56776630  0.95927462     0.16760
O460        O  0.64999064  0.51712840  0.95650870    -0.60270
H461        H  0.63058260  0.50539823  0.96748764     0.43760
H462        H  0.68601272  0.65027647  0.01427582     0.43710
C463        C  0.36759154  0.59901101  0.00528058    -0.05350
C464        C  0.33556541  0.60675026  0.99160395    -0.32780
C465        C  0.30966540  0.58209935  0.99078464     0.36470
C466        C  0.31593660  0.54929357  0.00348761    -0.05710
C467        C  0.34691756  0.54274263  0.01958424    -0.32680
C468        C  0.37254296  0.56710479  0.02059373     0.36380
H469        H  0.33116751  0.63127051  0.98004993     0.16750
O470        O  0.27944263  0.58953670  0.97530719    -0.60180
H471        H  0.35172816  0.51815825  0.03085448     0.16760
O472        O  0.40224117  0.55963300  0.03717432    -0.60270
H473        H  0.41317076  0.54152246  0.02361822     0.43760
H474        H  0.26562406  0.60070272  0.99307316     0.43710
loop_ 
_geom_bond_atom_site_label_1 
_geom_bond_atom_site_label_2 
_geom_bond_distance 
_geom_bond_site_symmetry_2 
_ccdc_geom_bond_type 
N1            N2   1.318   1_556  A
N1            C5   1.336       .  A
N1           Cu9   2.050       .  S
N2            C3   1.352       .  A
N2           Cu8   2.081       .  S
C3            C4   1.391       .  A
C3            H6   1.082       .  S
C4            C5   1.382   1_554  A
C4          C463   1.483       .  S
C5            H7   1.081       .  S
Cu8          N11   2.085       .  S
Cu9          N19   2.050       .  S
Cu10         N12   2.084       .  S
Cu10         N18   2.080   1_554  S
N11          N12   1.328       .  A
N11          C15   1.345       .  A
N12          C13   1.345       .  A
C13          C14   1.380       .  A
C13          H16   1.082   1_554  S
C14          C15   1.380       .  A
C14         C315   1.466   1_554  S
C15          H17   1.082       .  S
N18          N19   1.318       .  A
N18          C22   1.352       .  A
N19          C20   1.336       .  A
C20          C21   1.382       .  A
C20          H23   1.082       .  S
C21          C22   1.392       .  A
C21         C454   1.484       .  S
C22          H24   1.081   1_556  S
N25          N26   1.319       .  A
N25          C29   1.337       .  A
N25         Cu33   2.054       .  S
N26          C27   1.351   1_554  A
N26         Cu32   2.078   1_554  S
C27          C28   1.389       .  A
C27          H30   1.082       .  S
C28          C29   1.382   1_556  A
C28         C451   1.480       .  S
C29          H31   1.081       .  S
Cu32         N35   2.081       .  S
Cu33         N43   2.054       .  S
Cu34         N36   2.084       .  S
Cu34         N42   2.081       .  S
N35          N36   1.327       .  A
N35          C39   1.345       .  A
N36          C37   1.345       .  A
C37          C38   1.381       .  A
C37          H40   1.082       .  S
C38          C39   1.380       .  A
C38         C329   1.466       .  S
C39          H41   1.082       .  S
N42          N43   1.319   1_556  A
N42          C46   1.352   1_556  A
N43          C44   1.337       .  A
C44          C45   1.382       .  A
C44          H47   1.081       .  S
C45          C46   1.391       .  A
C45         C442   1.482       .  S
C46          H48   1.082   1_554  S
N49          N50   1.320       .  A
N49          C53   1.339       .  A
N49         Cu57   2.060       .  S
N50          C51   1.351       .  A
N50         Cu56   2.078       .  S
C51          C52   1.388       .  A
C51          H54   1.082       .  S
C52          C53   1.382       .  A
C52         C439   1.478   1_556  S
C53          H55   1.082       .  S
Cu56         N59   2.080       .  S
Cu57         N67   2.060       .  S
Cu58         N60   2.085       .  S
Cu58         N66   2.082       .  S
N59          N60   1.326       .  A
N59          C63   1.344       .  A
N60          C61   1.346       .  A
C61          C62   1.382       .  A
C61          H64   1.082       .  S
C62          C63   1.381       .  A
C62         C316   1.468   1_546  S
C63          H65   1.082       .  S
N66          N67   1.320       .  A
N66          C70   1.351       .  A
N67          C68   1.339       .  A
C68          C69   1.382   1_556  A
C68          H71   1.082       .  S
C69          C70   1.390   1_554  A
C69         C430   1.481       .  S
C70          H72   1.082   1_556  S
N73          N74   1.320       .  A
N73          C77   1.338       .  A
N73         Cu81   2.058       .  S
N74          C75   1.351   1_556  A
N74         Cu80   2.078   1_556  S
C75          C76   1.389   1_554  A
C75          H78   1.082       .  S
C76          C77   1.382       .  A
C76         C466   1.481   1_556  S
C77          H79   1.082       .  S
Cu80         N83   2.080       .  S
Cu81         N91   2.059       .  S
Cu82         N84   2.083   1_556  S
Cu82         N90   2.080       .  S
N83          N84   1.326       .  A
N83          C87   1.345       .  A
N84          C85   1.345       .  A
C85          C86   1.381       .  A
C85          H88   1.082       .  S
C86          C87   1.381       .  A
C86         C330   1.467       .  S
C87          H89   1.082       .  S
N90          N91   1.320       .  A
N90          C94   1.351   1_556  A
N91          C92   1.339       .  A
C92          C93   1.381       .  A
C92          H95   1.082       .  S
C93          C94   1.389   1_556  A
C93         C427   1.479   1_556  S
C94          H96   1.082       .  S
N97          N98   1.318       .  A
N97         C101   1.336       .  A
N97        Cu105   2.049       .  S
N98          C99   1.352       .  A
N98        Cu104   2.085   1_655  S
C99         C100   1.395       .  A
C99         H102   1.081       .  S
C100        C101   1.384       .  A
C100        C406   1.490       .  S
C101        H103   1.081       .  S
Cu104       N107   2.089       .  S
Cu105       N115   2.049       .  S
Cu106       N108   2.086       .  S
Cu106       N114   2.082       .  S
N107        N108   1.328       .  A
N107        C111   1.345       .  A
N108        C109   1.345       .  A
C109        C110   1.380       .  A
C109        H112   1.082       .  S
C110        C111   1.381       .  A
C110        C327   1.468       .  S
C111        H113   1.082       .  S
N114        N115   1.318   1_455  A
N114        C118   1.352       .  A
N115        C116   1.336       .  A
C116        C117   1.381   1_655  A
C116        H119   1.081       .  S
C117        C118   1.391       .  A
C117        C415   1.482       .  S
C118        H120   1.082       .  S
N121        N122   1.319       .  A
N121        C125   1.338       .  A
N121       Cu129   2.058       .  S
N122        C123   1.351   1_455  A
N122       Cu128   2.079   1_455  S
C123        C124   1.389   1_655  A
C123        H126   1.082       .  S
C124        C125   1.382       .  A
C124        C403   1.480   1_455  S
C125        H127   1.081       .  S
Cu128       N131   2.082       .  S
Cu129       N139   2.058       .  S
Cu130       N132   2.082       .  S
Cu130       N138   2.079   1_655  S
N131        N132   1.327       .  A
N131        C135   1.345       .  A
N132        C133   1.345       .  A
C133        C134   1.381       .  A
C133        H136   1.082       .  S
C134        C135   1.381       .  A
C134        C301   1.467       .  S
C135        H137   1.082       .  S
N138        N139   1.320       .  A
N138        C142   1.352   1_455  A
N139        C140   1.338       .  A
C140        C141   1.382       .  A
C140        H143   1.082       .  S
C141        C142   1.390   1_455  A
C141        C391   1.481   1_455  S
C142        H144   1.082       .  S
N145        N146   1.320       .  A
N145        C149   1.338       .  A
N145       Cu153   2.060       .  S
N146        C147   1.351   1_455  A
N146       Cu152   2.081   1_455  S
C147        C148   1.390   1_655  A
C147        H150   1.082       .  S
C148        C149   1.383       .  A
C148        C394   1.484   1_455  S
C149        H151   1.081       .  S
Cu152       N155   2.083       .  S
Cu153       N163   2.060       .  S
Cu154       N156   2.078       .  S
Cu154       N162   2.075       .  S
N155        N156   1.326       .  A
N155        C159   1.345       .  A
N156        C157   1.344       .  A
C157        C158   1.380       .  A
C157        H160   1.082       .  S
C158        C159   1.382       .  A
C158        C328   1.467       .  S
C159        H161   1.082       .  S
N162        N163   1.320   1_655  A
N162        C166   1.350       .  A
N163        C164   1.339       .  A
C164        C165   1.382       .  A
C164        H167   1.082       .  S
C165        C166   1.389   1_455  A
C165        C379   1.479       .  S
C166        H168   1.082       .  S
N169        N170   1.320       .  A
N169        C173   1.340   1_655  A
N169       Cu177   2.060       .  S
N170        C171   1.350       .  A
N170       Cu176   2.075       .  S
C171        C172   1.386   1_655  A
C171        H174   1.082       .  S
C172        C173   1.380       .  A
C172        C382   1.474       .  S
C173        H175   1.082       .  S
Cu176       N179   2.078   1_655  S
Cu177       N187   2.060       .  S
Cu178       N180   2.084       .  S
Cu178       N186   2.082       .  S
N179        N180   1.326       .  A
N179        C183   1.344       .  A
N180        C181   1.346       .  A
C181        C182   1.382       .  A
C181        H184   1.082       .  S
C182        C183   1.380       .  A
C182        C302   1.467   1_545  S
C183        H185   1.082   1_455  S
N186        N187   1.320   1_455  A
N186        C190   1.352       .  A
N187        C188   1.338   1_655  A
C188        C189   1.383       .  A
C188        H191   1.082   1_455  S
C189        C190   1.390       .  A
C189        C418   1.483       .  S
C190        H192   1.081       .  S
N193        N194   1.320       .  A
N193        C197   1.339       .  A
N193       Cu201   2.061       .  S
N194        C195   1.351       .  A
N194       Cu200   2.078       .  S
C195        C196   1.388       .  A
C195        H198   1.082       .  S
C196        C197   1.382       .  A
C196        C355   1.478       .  S
C197        H199   1.082       .  S
Cu200       N203   2.081       .  S
Cu201       N211   2.061       .  S
Cu202       N204   2.079       .  S
Cu202       N210   2.077       .  S
N203        N204   1.326       .  A
N203        C207   1.345       .  A
N204        C205   1.345       .  A
C205        C206   1.381       .  A
C205        H208   1.082       .  S
C206        C207   1.381       .  A
C206        C314   1.467       .  S
C207        H209   1.082       .  S
N210        N211   1.320       .  A
N210        C214   1.350       .  A
N211        C212   1.339       .  A
C212        C213   1.381       .  A
C212        H215   1.082       .  S
C213        C214   1.387       .  A
C213        C367   1.477       .  S
C214        H216   1.082       .  S
N217        N218   1.320       .  A
N217        C221   1.338       .  A
N217       Cu225   2.058       .  S
N218        C219   1.352       .  A
N218       Cu224   2.082       .  S
C219        C220   1.391       .  A
C219        H222   1.081       .  S
C220        C221   1.383       .  A
C220        C346   1.484       .  S
C221        H223   1.082       .  S
Cu224       N227   2.085       .  S
Cu225       N235   2.058       .  S
Cu226       N228   2.079       .  S
Cu226       N234   2.076       .  S
N227        N228   1.326       .  A
N227        C231   1.345       .  A
N228        C229   1.344       .  A
C229        C230   1.380       .  A
C229        H232   1.082       .  S
C230        C231   1.382       .  A
C230        C299   1.467       .  S
C231        H233   1.082       .  S
N234        N235   1.320       .  A
N234        C238   1.350       .  A
N235        C236   1.339       .  A
C236        C237   1.380       .  A
C236        H239   1.082       .  S
C237        C238   1.387       .  A
C237        C358   1.475       .  S
C238        H240   1.082       .  S
N241        N242   1.320       .  A
N241        C245   1.338       .  A
N241       Cu249   2.060       .  S
N242        C243   1.351       .  A
N242       Cu248   2.079       .  S
C243        C244   1.388       .  A
C243        H246   1.082       .  S
C244        C245   1.382       .  A
C244        C343   1.479       .  S
C245        H247   1.081       .  S
Cu248       N251   2.081       .  S
Cu249       N259   2.060       .  S
Cu250       N252   2.079       .  S
Cu250       N258   2.076       .  S
N251        N252   1.326       .  A
N251        C255   1.345       .  A
N252        C253   1.344       .  A
C253        C254   1.380       .  A
C253        H256   1.082       .  S
C254        C255   1.381       .  A
C254        C313   1.466       .  S
C255        H257   1.082       .  S
N258        N259   1.320       .  A
N258        C262   1.351       .  A
N259        C260   1.339       .  A
C260        C261   1.381       .  A
C260        H263   1.082       .  S
C261        C262   1.387       .  A
C261        C331   1.478       .  S
C262        H264   1.082       .  S
N265        N266   1.320       .  A
N265        C269   1.338       .  A
N265       Cu273   2.057       .  S
N266        C267   1.351       .  A
N266       Cu272   2.082       .  S
C267        C268   1.390       .  A
C267        H270   1.081       .  S
C268        C269   1.382       .  A
C268        C334   1.482       .  S
C269        H271   1.082       .  S
Cu272       N275   2.085       .  S
Cu273       N283   2.057       .  S
Cu274       N276   2.081       .  S
Cu274       N282   2.078       .  S
N275        N276   1.326       .  A
N275        C279   1.345       .  A
N276        C277   1.345       .  A
C277        C278   1.381       .  A
C277        H280   1.082       .  S
C278        C279   1.382       .  A
C278        C300   1.468       .  S
C279        H281   1.082       .  S
N282        N283   1.320       .  A
N282        C286   1.351       .  A
N283        C284   1.338       .  A
C284        C285   1.381       .  A
C284        H287   1.082       .  S
C285        C286   1.389       .  A
C285        C370   1.479       .  S
C286        H288   1.082       .  S
O289       Cu297   2.006       .  S
O289        C299   1.277       .  A
O290       Cu297   2.008   1_455  S
O290        C300   1.277       .  A
O291       Cu297   2.007       .  S
O291        C301   1.277       .  A
O292       Cu297   2.008   1_455  S
O292        C302   1.278       .  A
O293       Cu298   2.007   1_455  S
O293        C302   1.277       .  A
O294       Cu298   2.006       .  S
O294        C301   1.277       .  A
O295       Cu298   2.009   1_455  S
O295        C300   1.278       .  A
O296       Cu298   2.008       .  S
O296        C299   1.278       .  A
Cu297      Cu298   2.377       .  S
O303       Cu311   2.006   1_554  S
O303        C313   1.277       .  A
O304       Cu311   2.008       .  S
O304        C314   1.277       .  A
O305       Cu311   2.005       .  S
O305        C315   1.277       .  A
O306       Cu311   2.009   1_554  S
O306        C316   1.277       .  A
O307       Cu312   2.008   1_554  S
O307        C316   1.278       .  A
O308       Cu312   2.007       .  S
O308        C315   1.277       .  A
O309       Cu312   2.006       .  S
O309        C314   1.277       .  A
O310       Cu312   2.005   1_554  S
O310        C313   1.277       .  A
Cu311      Cu312   2.377       .  S
O317       Cu325   2.008   1_456  S
O317        C327   1.278       .  A
O318       Cu325   2.008       .  S
O318        C328   1.278       .  A
O319       Cu325   2.004   1_556  S
O319        C329   1.277       .  A
O320       Cu325   2.005   1_455  S
O320        C330   1.277       .  A
O321       Cu326   2.008       .  S
O321        C330   1.278       .  A
O322       Cu326   2.007   1_656  S
O322        C329   1.277       .  A
O323       Cu326   2.007   1_655  S
O323        C328   1.277       .  A
O324       Cu326   2.007   1_556  S
O324        C327   1.277       .  A
Cu325      Cu326   2.377   1_655  S
C331        C332   1.405       .  A
C331        C336   1.406       .  A
C332        C333   1.408       .  A
C332        H337   1.083       .  S
C333        C334   1.411       .  A
C333        O338   1.371       .  S
C334        C335   1.403       .  A
C335        C336   1.394       .  A
C335        H339   1.083       .  S
C336        O340   1.373       .  S
O338        H342   0.992       .  S
O340        H341   0.992       .  S
C343        C344   1.406       .  A
C343        C348   1.407       .  A
C344        C345   1.409       .  A
C344        H349   1.083       .  S
C345        C346   1.411       .  A
C345        O350   1.371       .  S
C346        C347   1.403       .  A
C347        C348   1.394       .  A
C347        H351   1.083       .  S
C348        O352   1.373       .  S
O350        H354   0.992       .  S
O352        H353   0.992       .  S
C355        C356   1.406       .  A
C355        C360   1.408       .  A
C356        C357   1.407       .  A
C356        H361   1.083       .  S
C357        C358   1.408       .  A
C357        O362   1.371       .  S
C358        C359   1.400       .  A
C359        C360   1.395       .  A
C359        H363   1.084       .  S
C360        O364   1.373       .  S
O362        H366   0.992       .  S
O364        H365   0.992       .  S
C367        C368   1.405       .  A
C367        C372   1.407       .  A
C368        C369   1.407       .  A
C368        H373   1.083       .  S
C369        C370   1.410       .  A
C369        O374   1.371       .  S
C370        C371   1.402       .  A
C371        C372   1.394       .  A
C371        H375   1.084       .  S
C372        O376   1.373       .  S
O374        H378   0.992       .  S
O376        H377   0.992       .  S
C379        C380   1.403       .  A
C379        C384   1.411   1_455  A
C380        C381   1.393       .  A
C380        H385   1.084       .  S
C381        C382   1.405       .  A
C381        O386   1.372       .  S
C382        C383   1.404   1_455  A
C383        C384   1.407       .  A
C383        H387   1.083       .  S
C384        O388   1.371       .  S
O386        H390   0.992       .  S
O388        H389   0.992       .  S
C391        C392   1.401       .  A
C391        C396   1.410   1_655  A
C392        C393   1.394       .  A
C392        H397   1.084       .  S
C393        C394   1.409       .  A
C393        O398   1.373       .  S
C394        C395   1.407   1_655  A
C395        C396   1.409       .  A
C395        H399   1.083       .  S
C396        O400   1.371       .  S
O398        H402   0.992       .  S
O400        H401   0.992       .  S
C403        C404   1.405   1_655  A
C403        C408   1.406       .  A
C404        C405   1.409       .  A
C404        H409   1.083       .  S
C405        C406   1.413   1_455  A
C405        O410   1.370       .  S
C406        C407   1.405       .  A
C407        C408   1.393       .  A
C407        H411   1.082       .  S
C408        O412   1.373       .  S
O410        H414   0.992       .  S
O412        H413   0.992       .  S
C415        C416   1.406   1_455  A
C415        C420   1.409       .  A
C416        C417   1.409       .  A
C416        H421   1.083       .  S
C417        C418   1.411   1_655  A
C417        O422   1.371       .  S
C418        C419   1.401       .  A
C419        C420   1.393       .  A
C419        H423   1.083       .  S
C420        O424   1.373       .  S
O422        H426   0.992       .  S
O424        H425   0.992       .  S
C427        C428   1.406   1_554  A
C427        C432   1.407       .  A
C428        C429   1.408       .  A
C428        H433   1.083       .  S
C429        C430   1.410   1_556  A
C429        O434   1.371       .  S
C430        C431   1.402       .  A
C431        C432   1.395       .  A
C431        H435   1.084       .  S
C432        O436   1.373       .  S
O434        H438   0.992       .  S
O436        H437   0.992       .  S
C439        C440   1.400       .  A
C439        C444   1.409   1_554  A
C440        C441   1.394       .  A
C440        H445   1.084       .  S
C441        C442   1.409       .  A
C441        O446   1.373       .  S
C442        C443   1.407   1_554  A
C443        C444   1.408       .  A
C443        H447   1.083       .  S
C444        O448   1.371       .  S
O446        H450   0.992       .  S
O448        H449   0.992       .  S
C451        C452   1.406   1_556  A
C451        C456   1.407       .  A
C452        C453   1.409       .  A
C452        H457   1.083       .  S
C453        C454   1.411   1_554  A
C453        O458   1.371       .  S
C454        C455   1.403       .  A
C455        C456   1.392       .  A
C455        H459   1.083       .  S
C456        O460   1.373       .  S
O458        H462   0.992       .  S
O460        H461   0.992       .  S
C463        C464   1.407   1_554  A
C463        C468   1.410       .  A
C464        C465   1.409       .  A
C464        H469   1.083       .  S
C465        C466   1.410   1_556  A
C465        O470   1.371       .  S
C466        C467   1.401       .  A
C467        C468   1.393       .  A
C467        H471   1.084       .  S
C468        O472   1.373       .  S
O470        H474   0.992       .  S
O472        H473   0.992       .  S
