geometry optimzed in LAMMPS
_audit_creation_date              2020-11-30 
_audit_creation_method            'lammps2cif' 
_symmetry_space_group_name_H-M    'P1' 
_symmetry_Int_Tables_number       1 
_symmetry_cell_setting            triclinic 
loop_ 
_symmetry_equiv_pos_as_xyz 
  x,y,z 
_cell_length_a                    26.75689261 
_cell_length_b                    29.337672822882183 
_cell_length_c                    27.056746935445585 
_cell_angle_alpha                 89.93757819765808 
_cell_angle_beta                  89.99985100459207 
_cell_angle_gamma                 83.52557093068569 
loop_ 
_atom_site_label 
_atom_site_type_symbol 
_atom_site_fract_x 
_atom_site_fract_y 
_atom_site_fract_z 
_atom_site_charge 
N1          N  0.08576241  0.34077261  0.23656130    -0.02800
C2          C  0.13567134  0.32608228  0.23455787    -0.00200
C3          C  0.14471003  0.28180074  0.25213272    -0.23100
C4          C  0.09889724  0.26970066  0.26762804    -0.23300
C5          C  0.06338076  0.30696718  0.25855824    -0.00300
H6          H  0.18025801  0.26056880  0.25383891     0.13400
H7          H  0.09237959  0.23750690  0.28467062     0.13500
N8          N  0.15471313  0.57450012  0.24188443    -0.02800
C9          C  0.19484565  0.58781416  0.21650424    -0.00200
C10         C  0.20482222  0.56177833  0.17468924    -0.23700
C11         C  0.17155542  0.53020332  0.17454474    -0.23300
C12         C  0.14290115  0.53710744  0.21688780    -0.00300
H13         H  0.23357904  0.56527214  0.14727498     0.13400
H14         H  0.16659131  0.50665198  0.14486670     0.13500
N15         N  0.28256980  0.60151084  0.23739565    -0.02800
C16         C  0.23267112  0.61623494  0.23540201    -0.00200
C17         C  0.22365814  0.66043309  0.25312386    -0.23100
C18         C  0.26947470  0.67242223  0.26871818    -0.23300
C19         C  0.30496640  0.63518146  0.25954439    -0.00300
H20         H  0.18814067  0.68169125  0.25482677     0.13400
H21         H  0.27601607  0.70453881  0.28584359     0.13500
O22         O  0.31083276  0.53148895  0.27294784    -0.72300
O23         O  0.05764363  0.41055563  0.27254243    -0.73300
O24         O  0.08075755  0.50510474  0.26807295    -0.61900
O25         O  0.28771700  0.43695488  0.26798875    -0.70300
O26         O  0.28714693  0.44694367  0.18669985    -0.69900
O27         O  0.08115133  0.49572165  0.18672240    -0.61100
O28         O  0.05160400  0.40573253  0.19092166    -0.73600
O29         O  0.31666616  0.53689112  0.19134633    -0.72400
Cu30       Cu  0.01757657  0.47101638  0.27359928     1.04600
Cu31       Cu  0.01747351  0.47133320  0.18616043     1.04300
C32         C  0.30404956  0.55473500  0.23345450     0.93900
C33         C  0.06430166  0.38758318  0.23291063     0.93000
C34         C  0.09955337  0.51163559  0.22524685     0.85200
C35         C  0.26883338  0.43073573  0.22514606     0.91400
N36         N  0.21366776  0.36773232  0.24135029    -0.02800
C37         C  0.17349114  0.35465717  0.21588003    -0.00200
C38         C  0.16346560  0.38107038  0.17427956    -0.23100
C39         C  0.19672484  0.41264750  0.17439106    -0.23300
C40         C  0.22545622  0.40534785  0.21665399    -0.00300
H41         H  0.13468179  0.37782436  0.14683588     0.13400
H42         H  0.20164491  0.43646688  0.14490776     0.13500
C43         C  0.28022741  0.27225507  0.31999651     0.87100
C44         C  0.99870897  0.28950053  0.31813668    -0.53100
C45         C  0.00969198  0.30958085  0.27455870     0.10100
C46         C  0.29849686  0.31360607  0.23769114     0.21000
C47         C  0.24212086  0.31435462  0.30911493    -0.53800
C48         C  0.25112160  0.33578590  0.26563941     0.10200
C49         C  0.27877269  0.24198532  0.27349876    -0.53400
C50         C  0.28800222  0.26376596  0.23038862     0.10700
H51         H  0.02698578  0.28065104  0.34644840     0.15200
H52         H  0.30633787  0.33144477  0.20282168     0.01000
H53         H  0.20891563  0.32397203  0.33146145     0.15500
H54         H  0.26979241  0.20689678  0.27410409     0.15300
C55         C  0.08828454  0.66971750  0.32068522     0.87100
C56         C  0.03645135  0.65251380  0.31896541    -0.53100
C57         C  0.02535144  0.63249315  0.27544493     0.10100
C58         C  0.06979171  0.62846167  0.23849242     0.21000
C59         C  0.12633718  0.62760705  0.30978480    -0.53800
C60         C  0.11723351  0.60623916  0.26634671     0.10200
C61         C  0.08965509  0.70003074  0.27413230    -0.53400
C62         C  0.08032801  0.67827998  0.23107927     0.10700
H63         H  0.34157696  0.66135576  0.34732308     0.15200
H64         H  0.06184128  0.61065977  0.20367549     0.01000
H65         H  0.15961900  0.61798558  0.33204508     0.15500
H66         H  0.09868999  0.73510098  0.27464858     0.15300
N67         N  0.27953630  0.19168267  0.42431663    -0.26700
N68         N  0.27462796  0.23117428  0.44833207    -0.34500
C69         C  0.27045664  0.26575570  0.41517847     0.01700
C70         C  0.27249005  0.24726797  0.36794467     0.07700
C71         C  0.27840186  0.20013234  0.37553810    -0.05400
H72         H  0.26913383  0.30169071  0.42464799     0.08400
H73         H  0.28540492  0.17356750  0.34797327     0.09600
Cu74       Cu  0.27910959  0.23590563  0.02489878     0.44200
Cu75       Cu  0.29506986  0.12713855  0.45684002     0.42000
Cu76       Cu  0.30253181  0.12499551  0.08784345     0.43900
N77         N  0.28520049  0.22813978  0.10118019    -0.34000
N78         N  0.29253583  0.18782709  0.12357978    -0.28300
C79         C  0.29421904  0.19440385  0.17262923    -0.04400
C80         C  0.28798800  0.24104967  0.18171432     0.07800
C81         C  0.28242898  0.26147496  0.13559194     0.01600
H82         H  0.30055238  0.16709406  0.19957116     0.09300
H83         H  0.27637759  0.29781070  0.12754546     0.08400
N84         N  0.31754422  0.06639430  0.04520406    -0.35500
N85         N  0.31536426  0.06684958  0.49642871    -0.27700
C86         C  0.32992366  0.02417292  0.47949319    -0.02900
C87         C  0.34176978  0.99561214  0.01971684     0.05700
C88         C  0.33329961  0.02361675  0.06070154     0.03800
H89         H  0.33240429  0.01481875  0.44083573     0.08900
H90         H  0.33921427  0.01389389  0.09901523     0.07700
N91         N  0.08935987  0.75016007  0.42487581    -0.26700
N92         N  0.09389152  0.71065203  0.44895321    -0.34500
C93         C  0.09791402  0.67609707  0.41585447     0.01700
C94         C  0.09613384  0.69461887  0.36859626     0.07700
C95         C  0.09059039  0.74174617  0.37611214    -0.05400
H96         H  0.09892031  0.64017648  0.42536833     0.08400
H97         H  0.08386730  0.76835811  0.34850322     0.09600
Cu98       Cu  0.08912126  0.70586858  0.02550018     0.44200
Cu99       Cu  0.07408647  0.81473802  0.45721742     0.42000
Cu100      Cu  0.06654396  0.81687719  0.08809832     0.43900
N101        N  0.08316401  0.71373679  0.10175207    -0.34000
N102        N  0.07616200  0.75408189  0.12401763    -0.28300
C103        C  0.07450613  0.74757576  0.17309204    -0.04400
C104        C  0.08040873  0.70094204  0.18233525     0.07800
C105        C  0.08575456  0.68044866  0.13628126     0.01600
H106        H  0.06841912  0.77493249  0.19993974     0.09300
H107        H  0.09154821  0.64409749  0.12835641     0.08400
N108        N  0.05159885  0.87549646  0.04538393    -0.35500
N109        N  0.05379640  0.87505414  0.49661395    -0.27700
C110        C  0.03922058  0.91773297  0.47959145    -0.02900
C111        C  0.02735012  0.94627685  0.01976098     0.05700
C112        C  0.03581850  0.91825994  0.06079909     0.03800
H113        H  0.03674089  0.92709937  0.44091514     0.08900
H114        H  0.02987915  0.92796196  0.09909265     0.07700
N115        N  0.08576246  0.34077266  0.73656115    -0.02800
C116        C  0.13567141  0.32608229  0.73455787    -0.00200
C117        C  0.14470995  0.28180074  0.75213259    -0.23100
C118        C  0.09889718  0.26970069  0.76762784    -0.23300
C119        C  0.06338078  0.30696722  0.75855805    -0.00300
H120        H  0.18025817  0.26056858  0.75383884     0.13400
H121        H  0.09237942  0.23750693  0.78467049     0.13500
N122        N  0.15471323  0.57450009  0.74188446    -0.02800
C123        C  0.19484582  0.58781404  0.71650431    -0.00200
C124        C  0.20482236  0.56177824  0.67468928    -0.23700
C125        C  0.17155539  0.53020339  0.67454467    -0.23300
C126        C  0.14290124  0.53710743  0.71688781    -0.00300
H127        H  0.23357915  0.56527204  0.64727503     0.13400
H128        H  0.16659119  0.50665218  0.64486661     0.13500
N129        N  0.28256991  0.60151080  0.73739568    -0.02800
C130        C  0.23267125  0.61623488  0.73540195    -0.00200
C131        C  0.22365822  0.66043299  0.75312388    -0.23100
C132        C  0.26947473  0.67242205  0.76871818    -0.23300
C133        C  0.30496646  0.63518139  0.75954453    -0.00300
H134        H  0.18814069  0.68169114  0.75482689     0.13400
H135        H  0.27601620  0.70453907  0.78584380     0.13500
O136        O  0.31083276  0.53148893  0.77294795    -0.72300
O137        O  0.05764378  0.41055565  0.77254227    -0.73300
O138        O  0.08075778  0.50510457  0.76807301    -0.61900
O139        O  0.28771716  0.43695491  0.76798863    -0.70300
O140        O  0.28714696  0.44694366  0.68669969    -0.69900
O141        O  0.08115144  0.49572166  0.68672241    -0.61100
O142        O  0.05160397  0.40573253  0.69092148    -0.73600
O143        O  0.31666627  0.53689112  0.69134641    -0.72400
Cu144      Cu  0.01757671  0.47101636  0.77359932     1.04600
Cu145      Cu  0.01747354  0.47133322  0.68616031     1.04300
C146        C  0.30404966  0.55473497  0.73345456     0.93900
C147        C  0.06430175  0.38758321  0.73291046     0.93000
C148        C  0.09955352  0.51163552  0.72524689     0.85200
C149        C  0.26883350  0.43073570  0.72514596     0.91400
N150        N  0.21366781  0.36773231  0.74135037    -0.02800
C151        C  0.17349125  0.35465713  0.71588005    -0.00200
C152        C  0.16346573  0.38107038  0.67427967    -0.23100
C153        C  0.19672481  0.41264758  0.67439121    -0.23300
C154        C  0.22545628  0.40534787  0.71665407    -0.00300
H155        H  0.13468175  0.37782431  0.64683578     0.13400
H156        H  0.20164484  0.43646703  0.64490789     0.13500
C157        C  0.28022757  0.27225502  0.81999652     0.87100
C158        C  0.99870917  0.28950059  0.81813667    -0.53100
C159        C  0.00969205  0.30958089  0.77455858     0.10100
C160        C  0.29849684  0.31360598  0.73769103     0.21000
C161        C  0.24212093  0.31435451  0.80911495    -0.53800
C162        C  0.25112162  0.33578577  0.76563938     0.10200
C163        C  0.27877283  0.24198523  0.77349878    -0.53400
C164        C  0.28800223  0.26376585  0.73038858     0.10700
H165        H  0.02698579  0.28065122  0.84644819     0.15200
H166        H  0.30633772  0.33144464  0.70282161     0.01000
H167        H  0.20891592  0.32397186  0.83146152     0.15500
H168        H  0.26979267  0.20689662  0.77410421     0.15300
C169        C  0.08828461  0.66971749  0.82068523     0.87100
C170        C  0.03645140  0.65251382  0.81896544    -0.53100
C171        C  0.02535151  0.63249317  0.77544496     0.10100
C172        C  0.06979177  0.62846164  0.73849245     0.21000
C173        C  0.12633715  0.62760699  0.80978485    -0.53800
C174        C  0.11723356  0.60623913  0.76634670     0.10200
C175        C  0.08965525  0.70003067  0.77413227    -0.53400
C176        C  0.08032812  0.67827991  0.73107924     0.10700
H177        H  0.34157704  0.66135581  0.84732328     0.15200
H178        H  0.06184128  0.61065969  0.70367535     0.01000
H179        H  0.15961896  0.61798556  0.83204518     0.15500
H180        H  0.09869022  0.73510094  0.77464857     0.15300
N181        N  0.27953623  0.19168269  0.92431678    -0.26700
N182        N  0.27462806  0.23117431  0.94833220    -0.34500
C183        C  0.27045684  0.26575572  0.91517857     0.01700
C184        C  0.27249025  0.24726797  0.86794477     0.07700
C185        C  0.27840192  0.20013235  0.87553824    -0.05400
H186        H  0.26913407  0.30169072  0.92464805     0.08400
H187        H  0.28540495  0.17356747  0.84797344     0.09600
Cu188      Cu  0.27910940  0.23590565  0.52489863     0.44200
Cu189      Cu  0.29506966  0.12713858  0.95684017     0.42000
Cu190      Cu  0.30253199  0.12499553  0.58784326     0.43900
N191        N  0.28520036  0.22813978  0.60118006    -0.34000
N192        N  0.29253595  0.18782706  0.62357962    -0.28300
C193        C  0.29421926  0.19440379  0.67262908    -0.04400
C194        C  0.28798807  0.24104958  0.68171424     0.07800
C195        C  0.28242882  0.26147488  0.63559187     0.01600
H196        H  0.30055267  0.16709395  0.69957099     0.09300
H197        H  0.27637724  0.29781073  0.62754545     0.08400
N198        N  0.31754439  0.06639431  0.54520399    -0.35500
N199        N  0.31536409  0.06684959  0.99642877    -0.27700
C200        C  0.32992347  0.02417292  0.97949315    -0.02900
C201        C  0.34177001  0.99561215  0.51971684     0.05700
C202        C  0.33329980  0.02361677  0.56070153     0.03800
H203        H  0.33240404  0.01481884  0.94083600     0.08900
H204        H  0.33921449  0.01389393  0.59901516     0.07700
N205        N  0.08935980  0.75016002  0.92487588    -0.26700
N206        N  0.09389164  0.71065195  0.94895322    -0.34500
C207        C  0.09791427  0.67609695  0.91585444     0.01700
C208        C  0.09613399  0.69461888  0.86859625     0.07700
C209        C  0.09059044  0.74174614  0.87611225    -0.05400
H210        H  0.09892066  0.64017667  0.92536813     0.08400
H211        H  0.08386726  0.76835828  0.84850318     0.09600
Cu212      Cu  0.08912106  0.70586861  0.52550025     0.44200
Cu213      Cu  0.07408629  0.81473799  0.95721754     0.42000
Cu214      Cu  0.06654415  0.81687716  0.58809820     0.43900
N215        N  0.08316387  0.71373676  0.60175208    -0.34000
N216        N  0.07616211  0.75408189  0.62401764    -0.28300
C217        C  0.07450630  0.74757570  0.67309200    -0.04400
C218        C  0.08040867  0.70094199  0.68233523     0.07800
C219        C  0.08575430  0.68044869  0.63628126     0.01600
H220        H  0.06841943  0.77493257  0.69993990     0.09300
H221        H  0.09154787  0.64409722  0.62835636     0.08400
N222        N  0.05159903  0.87549647  0.54538405    -0.35500
N223        N  0.05379620  0.87505415  0.99661384    -0.27700
C224        C  0.03922038  0.91773301  0.97959125    -0.02900
C225        C  0.02735031  0.94627685  0.51976109     0.05700
C226        C  0.03581868  0.91825996  0.56079922     0.03800
H227        H  0.03674071  0.92709934  0.94091523     0.08900
H228        H  0.02987931  0.92796201  0.59909279     0.07700
N229        N  0.41909581  0.34077264  0.23656134    -0.02800
C230        C  0.46900473  0.32608229  0.23455803    -0.00200
C231        C  0.47804333  0.28180071  0.25213278    -0.23100
C232        C  0.43223050  0.26970064  0.26762802    -0.23300
C233        C  0.39671410  0.30696720  0.25855821    -0.00300
H234        H  0.51359128  0.26056867  0.25383895     0.13400
H235        H  0.42571272  0.23750696  0.28467055     0.13500
N236        N  0.48804655  0.57450016  0.24188444    -0.02800
C237        C  0.52817905  0.58781417  0.21650424    -0.00200
C238        C  0.53815564  0.56177832  0.17468923    -0.23700
C239        C  0.50488877  0.53020336  0.17454475    -0.23300
C240        C  0.47623457  0.53710745  0.21688785    -0.00300
H241        H  0.56691239  0.56527208  0.14727502     0.13400
H242        H  0.49992463  0.50665206  0.14486670     0.13500
N243        N  0.61590318  0.60151088  0.23739557    -0.02800
C244        C  0.56600452  0.61623493  0.23540197    -0.00200
C245        C  0.55699144  0.66043304  0.25312386    -0.23100
C246        C  0.60280798  0.67242223  0.26871819    -0.23300
C247        C  0.63829973  0.63518151  0.25954434    -0.00300
H248        H  0.52147397  0.68169113  0.25482677     0.13400
H249        H  0.60934929  0.70453882  0.28584363     0.13500
O250        O  0.64416603  0.53148896  0.27294779    -0.72300
O251        O  0.39097717  0.41055566  0.27254242    -0.73300
O252        O  0.41409094  0.50510477  0.26807294    -0.61900
O253        O  0.62105024  0.43695489  0.26798875    -0.70300
O254        O  0.62048019  0.44694365  0.18669985    -0.69900
O255        O  0.41448483  0.49572161  0.18672241    -0.61100
O256        O  0.38493734  0.40573249  0.19092167    -0.73600
O257        O  0.64999941  0.53689110  0.19134627    -0.72400
Cu258      Cu  0.35091004  0.47101639  0.27359928     1.04600
Cu259      Cu  0.35080693  0.47133320  0.18616043     1.04300
C260        C  0.63738293  0.55473502  0.23345442     0.93900
C261        C  0.39763511  0.38758319  0.23291065     0.93000
C262        C  0.43288681  0.51163559  0.22524686     0.85200
C263        C  0.60216665  0.43073572  0.22514606     0.91400
N264        N  0.54700108  0.36773235  0.24135035    -0.02800
C265        C  0.50682454  0.35465709  0.21588005    -0.00200
C266        C  0.49679903  0.38107030  0.17427960    -0.23100
C267        C  0.53005813  0.41264750  0.17439109    -0.23300
C268        C  0.55878950  0.40534787  0.21665402    -0.00300
H269        H  0.46801504  0.37782426  0.14683574     0.13400
H270        H  0.53497815  0.43646695  0.14490773     0.13500
C271        C  0.61356078  0.27225507  0.31999652     0.87100
C272        C  0.33204240  0.28950053  0.31813674    -0.53100
C273        C  0.34302536  0.30958089  0.27455871     0.10100
C274        C  0.63183011  0.31360606  0.23769110     0.21000
C275        C  0.57545427  0.31435462  0.30911494    -0.53800
C276        C  0.58445491  0.33578591  0.26563944     0.10200
C277        C  0.61210597  0.24198530  0.27349877    -0.53400
C278        C  0.62133541  0.26376597  0.23038862     0.10700
H279        H  0.36031901  0.28065108  0.34644821     0.15200
H280        H  0.63967107  0.33144476  0.20282163     0.01000
H281        H  0.54224887  0.32397208  0.33146169     0.15500
H282        H  0.60312573  0.20689685  0.27410413     0.15300
C283        C  0.42161777  0.66971753  0.32068523     0.87100
C284        C  0.36978457  0.65251379  0.31896543    -0.53100
C285        C  0.35868474  0.63249315  0.27544491     0.10100
C286        C  0.40312504  0.62846168  0.23849239     0.21000
C287        C  0.45967040  0.62760710  0.30978479    -0.53800
C288        C  0.45056688  0.60623924  0.26634668     0.10200
C289        C  0.42298830  0.70003075  0.27413231    -0.53400
C290        C  0.41366125  0.67828001  0.23107927     0.10700
H291        H  0.67491020  0.66135578  0.34732317     0.15200
H292        H  0.39517468  0.61065977  0.20367545     0.01000
H293        H  0.49295236  0.61798560  0.33204527     0.15500
H294        H  0.43202324  0.73510109  0.27464859     0.15300
N295        N  0.61286954  0.19168267  0.42431664    -0.26700
N296        N  0.60796111  0.23117428  0.44833207    -0.34500
C297        C  0.60378988  0.26575570  0.41517847     0.01700
C298        C  0.60582351  0.24726796  0.36794468     0.07700
C299        C  0.61173536  0.20013234  0.37553811    -0.05400
H300        H  0.60246696  0.30169072  0.42464800     0.08400
H301        H  0.61873856  0.17356749  0.34797329     0.09600
Cu302      Cu  0.61244277  0.23590563  0.02489878     0.44200
Cu303      Cu  0.62840305  0.12713855  0.45684002     0.42000
Cu304      Cu  0.63586537  0.12499552  0.08784345     0.43900
N305        N  0.61853375  0.22813978  0.10118019    -0.34000
N306        N  0.62586925  0.18782709  0.12357977    -0.28300
C307        C  0.62755233  0.19440386  0.17262923    -0.04400
C308        C  0.62132116  0.24104966  0.18171433     0.07800
C309        C  0.61576213  0.26147496  0.13559194     0.01600
H310        H  0.63388571  0.16709405  0.19957118     0.09300
H311        H  0.60971070  0.29781070  0.12754546     0.08400
N312        N  0.65087762  0.06639431  0.04520406    -0.35500
N313        N  0.64869772  0.06684960  0.49642871    -0.27700
C314        C  0.66325693  0.02417291  0.47949319    -0.02900
C315        C  0.67510302  0.99561212  0.01971684     0.05700
C316        C  0.66663290  0.02361674  0.06070153     0.03800
H317        H  0.66573746  0.01481873  0.44083571     0.08900
H318        H  0.67254765  0.01389389  0.09901526     0.07700
N319        N  0.42269311  0.75016007  0.42487581    -0.26700
N320        N  0.42722469  0.71065203  0.44895322    -0.34500
C321        C  0.43124722  0.67609707  0.41585447     0.01700
C322        C  0.42946707  0.69461887  0.36859627     0.07700
C323        C  0.42392378  0.74174617  0.37611215    -0.05400
H324        H  0.43225355  0.64017649  0.42536833     0.08400
H325        H  0.41720080  0.76835813  0.34850320     0.09600
Cu326      Cu  0.42245444  0.70586859  0.02550018     0.44200
Cu327      Cu  0.40741966  0.81473801  0.45721741     0.42000
Cu328      Cu  0.39987716  0.81687719  0.08809832     0.43900
N329        N  0.41649735  0.71373679  0.10175207    -0.34000
N330        N  0.40949538  0.75408189  0.12401763    -0.28300
C331        C  0.40783938  0.74757577  0.17309203    -0.04400
C332        C  0.41374199  0.70094205  0.18233524     0.07800
C333        C  0.41908794  0.68044866  0.13628126     0.01600
H334        H  0.40175224  0.77493249  0.19993973     0.09300
H335        H  0.42488165  0.64409750  0.12835642     0.08400
N336        N  0.38493231  0.87549649  0.04538393    -0.35500
N337        N  0.38712986  0.87505416  0.49661396    -0.27700
C338        C  0.37255391  0.91773296  0.47959144    -0.02900
C339        C  0.36068334  0.94627682  0.01976098     0.05700
C340        C  0.36915176  0.91825993  0.06079909     0.03800
H341        H  0.37007404  0.92709932  0.44091514     0.08900
H342        H  0.36321232  0.92796192  0.09909263     0.07700
N343        N  0.41909593  0.34077266  0.73656117    -0.02800
C344        C  0.46900486  0.32608229  0.73455788    -0.00200
C345        C  0.47804347  0.28180071  0.75213260    -0.23100
C346        C  0.43223065  0.26970071  0.76762783    -0.23300
C347        C  0.39671420  0.30696721  0.75855804    -0.00300
H348        H  0.51359144  0.26056868  0.75383879     0.13400
H349        H  0.42571290  0.23750686  0.78467050     0.13500
N350        N  0.48804657  0.57450011  0.74188443    -0.02800
C351        C  0.52817915  0.58781408  0.71650430    -0.00200
C352        C  0.53815579  0.56177826  0.67468930    -0.23700
C353        C  0.50488886  0.53020334  0.67454470    -0.23300
C354        C  0.47623464  0.53710740  0.71688782    -0.00300
H355        H  0.56691254  0.56527215  0.64727510     0.13400
H356        H  0.49992468  0.50665218  0.64486662     0.13500
N357        N  0.61590324  0.60151080  0.73739571    -0.02800
C358        C  0.56600459  0.61623488  0.73540199    -0.00200
C359        C  0.55699156  0.66043301  0.75312391    -0.23100
C360        C  0.60280812  0.67242206  0.76871816    -0.23300
C361        C  0.63829983  0.63518138  0.75954450    -0.00300
H362        H  0.52147409  0.68169115  0.75482694     0.13400
H363        H  0.60934964  0.70453898  0.78584374     0.13500
O364        O  0.64416622  0.53148896  0.77294795    -0.72300
O365        O  0.39097713  0.41055563  0.77254227    -0.73300
O366        O  0.41409110  0.50510461  0.76807298    -0.61900
O367        O  0.62105039  0.43695494  0.76798864    -0.70300
O368        O  0.62048027  0.44694367  0.68669970    -0.69900
O369        O  0.41448483  0.49572164  0.68672238    -0.61100
O370        O  0.38493744  0.40573253  0.69092147    -0.73600
O371        O  0.64999957  0.53689112  0.69134640    -0.72400
Cu372      Cu  0.35091011  0.47101636  0.77359931     1.04600
Cu373      Cu  0.35080695  0.47133322  0.68616031     1.04300
C374        C  0.63738303  0.55473497  0.73345457     0.93900
C375        C  0.39763520  0.38758321  0.73291046     0.93000
C376        C  0.43288688  0.51163552  0.72524687     0.85200
C377        C  0.60216677  0.43073574  0.72514596     0.91400
N378        N  0.54700120  0.36773230  0.74135035    -0.02800
C379        C  0.50682467  0.35465710  0.71588002    -0.00200
C380        C  0.49679907  0.38107039  0.67427968    -0.23100
C381        C  0.53005817  0.41264758  0.67439118    -0.23300
C382        C  0.55878960  0.40534788  0.71665406    -0.00300
H383        H  0.46801510  0.37782435  0.64683586     0.13400
H384        H  0.53497820  0.43646697  0.64490792     0.13500
C385        C  0.61356089  0.27225503  0.81999653     0.87100
C386        C  0.33204249  0.28950058  0.81813667    -0.53100
C387        C  0.34302542  0.30958088  0.77455857     0.10100
C388        C  0.63183022  0.31360595  0.73769104     0.21000
C389        C  0.57545424  0.31435449  0.80911492    -0.53800
C390        C  0.58445498  0.33578576  0.76563936     0.10200
C391        C  0.61210615  0.24198520  0.77349880    -0.53400
C392        C  0.62133564  0.26376580  0.73038860     0.10700
H393        H  0.36031909  0.28065122  0.84644817     0.15200
H394        H  0.63967112  0.33144461  0.70282164     0.01000
H395        H  0.54224916  0.32397184  0.83146146     0.15500
H396        H  0.60312591  0.20689673  0.77410421     0.15300
C397        C  0.42161792  0.66971750  0.82068523     0.87100
C398        C  0.36978472  0.65251380  0.81896546    -0.53100
C399        C  0.35868480  0.63249315  0.77544498     0.10100
C400        C  0.40312506  0.62846164  0.73849246     0.21000
C401        C  0.45967053  0.62760704  0.80978481    -0.53800
C402        C  0.45056690  0.60623914  0.76634669     0.10200
C403        C  0.42298849  0.70003067  0.77413228    -0.53400
C404        C  0.41366137  0.67827992  0.73107925     0.10700
H405        H  0.67491040  0.66135578  0.84732331     0.15200
H406        H  0.39517457  0.61065969  0.70367538     0.01000
H407        H  0.49295241  0.61798562  0.83204510     0.15500
H408        H  0.43202345  0.73510095  0.77464857     0.15300
N409        N  0.61286962  0.19168270  0.92431677    -0.26700
N410        N  0.60796131  0.23117431  0.94833220    -0.34500
C411        C  0.60379011  0.26575572  0.91517857     0.01700
C412        C  0.60582360  0.24726797  0.86794477     0.07700
C413        C  0.61173527  0.20013235  0.87553824    -0.05400
H414        H  0.60246730  0.30169074  0.92464807     0.08400
H415        H  0.61873823  0.17356745  0.84797341     0.09600
Cu416      Cu  0.61244257  0.23590565  0.52489863     0.44200
Cu417      Cu  0.62840285  0.12713858  0.95684018     0.42000
Cu418      Cu  0.63586554  0.12499553  0.58784326     0.43900
N419        N  0.61853352  0.22813976  0.60118007    -0.34000
N420        N  0.62586915  0.18782703  0.62357961    -0.28300
C421        C  0.62755248  0.19440373  0.67262906    -0.04400
C422        C  0.62132131  0.24104951  0.68171427     0.07800
C423        C  0.61576200  0.26147484  0.63559191     0.01600
H424        H  0.63388606  0.16709382  0.69957097     0.09300
H425        H  0.60971047  0.29781065  0.62754553     0.08400
N426        N  0.65087797  0.06639434  0.54520399    -0.35500
N427        N  0.64869733  0.06684958  0.99642877    -0.27700
C428        C  0.66325667  0.02417290  0.97949315    -0.02900
C429        C  0.67510327  0.99561212  0.51971684     0.05700
C430        C  0.66663329  0.02361677  0.56070152     0.03800
H431        H  0.66573731  0.01481885  0.94083598     0.08900
H432        H  0.67254808  0.01389394  0.59901514     0.07700
N433        N  0.42269318  0.75016009  0.92487587    -0.26700
N434        N  0.42722497  0.71065201  0.94895322    -0.34500
C435        C  0.43124764  0.67609710  0.91585442     0.01700
C436        C  0.42946728  0.69461892  0.86859625     0.07700
C437        C  0.42392369  0.74174620  0.87611224    -0.05400
H438        H  0.43225412  0.64017642  0.92536822     0.08400
H439        H  0.41720039  0.76835833  0.84850317     0.09600
Cu440      Cu  0.42245424  0.70586861  0.52550025     0.44200
Cu441      Cu  0.40741949  0.81473800  0.95721754     0.42000
Cu442      Cu  0.39987733  0.81687716  0.58809820     0.43900
N443        N  0.41649712  0.71373676  0.60175208    -0.34000
N444        N  0.40949526  0.75408189  0.62401764    -0.28300
C445        C  0.40783953  0.74757569  0.67309200    -0.04400
C446        C  0.41374211  0.70094199  0.68233524     0.07800
C447        C  0.41908779  0.68044869  0.63628127     0.01600
H448        H  0.40175253  0.77493256  0.69993990     0.09300
H449        H  0.42488146  0.64409722  0.62835637     0.08400
N450        N  0.38493250  0.87549649  0.54538405    -0.35500
N451        N  0.38712966  0.87505418  0.99661385    -0.27700
C452        C  0.37255364  0.91773300  0.97959125    -0.02900
C453        C  0.36068371  0.94627686  0.51976109     0.05700
C454        C  0.36915201  0.91825996  0.56079922     0.03800
H455        H  0.37007388  0.92709931  0.94091523     0.08900
H456        H  0.36321246  0.92796195  0.59909276     0.07700
N457        N  0.75242904  0.34077263  0.23656131    -0.02800
C458        C  0.80233796  0.32608224  0.23455788    -0.00200
C459        C  0.81137651  0.28180072  0.25213272    -0.23100
C460        C  0.76556374  0.26970065  0.26762802    -0.23300
C461        C  0.73004736  0.30696722  0.25855822    -0.00300
H462        H  0.84692472  0.26056857  0.25383898     0.13400
H463        H  0.75904599  0.23750698  0.28467057     0.13500
N464        N  0.82137980  0.57450016  0.24188442    -0.02800
C465        C  0.86151233  0.58781417  0.21650425    -0.00200
C466        C  0.87148893  0.56177833  0.17468926    -0.23700
C467        C  0.83822213  0.53020335  0.17454477    -0.23300
C468        C  0.80956785  0.53710746  0.21688781    -0.00300
H469        H  0.90024574  0.56527214  0.14727499     0.13400
H470        H  0.83325802  0.50665199  0.14486666     0.13500
N471        N  0.94923649  0.60151082  0.23739561    -0.02800
C472        C  0.89933783  0.61623492  0.23540199    -0.00200
C473        C  0.89032484  0.66043305  0.25312387    -0.23100
C474        C  0.93614139  0.67242210  0.26871821    -0.23300
C475        C  0.97163310  0.63518141  0.25954442    -0.00300
H476        H  0.85480740  0.68169122  0.25482678     0.13400
H477        H  0.94268285  0.70453891  0.28584379     0.13500
O478        O  0.97749921  0.53148892  0.27294783    -0.72300
O479        O  0.72431033  0.41055563  0.27254243    -0.73300
O480        O  0.74742428  0.50510472  0.26807295    -0.61900
O481        O  0.95438362  0.43695487  0.26798875    -0.70300
O482        O  0.95381356  0.44694365  0.18669984    -0.69900
O483        O  0.74781804  0.49572166  0.18672240    -0.61100
O484        O  0.71827072  0.40573254  0.19092166    -0.73600
O485        O  0.98333283  0.53689111  0.19134634    -0.72400
Cu486      Cu  0.68424328  0.47101639  0.27359927     1.04600
Cu487      Cu  0.68414018  0.47133320  0.18616042     1.04300
C488        C  0.97071620  0.55473499  0.23345450     0.93900
C489        C  0.73096837  0.38758320  0.23291064     0.93000
C490        C  0.76622008  0.51163559  0.22524685     0.85200
C491        C  0.93550002  0.43073570  0.22514604     0.91400
N492        N  0.88033435  0.36773234  0.24135032    -0.02800
C493        C  0.84015779  0.35465712  0.21588002    -0.00200
C494        C  0.83013224  0.38107034  0.17427956    -0.23100
C495        C  0.86339140  0.41264752  0.17439110    -0.23300
C496        C  0.89212283  0.40534786  0.21665400    -0.00300
H497        H  0.80134844  0.37782427  0.14683584     0.13400
H498        H  0.86831142  0.43646697  0.14490773     0.13500
C499        C  0.94689406  0.27225507  0.31999651     0.87100
C500        C  0.66537570  0.28950054  0.31813667    -0.53100
C501        C  0.67635863  0.30958089  0.27455869     0.10100
C502        C  0.96516343  0.31360607  0.23769113     0.21000
C503        C  0.90878749  0.31435464  0.30911496    -0.53800
C504        C  0.91778822  0.33578592  0.26563943     0.10200
C505        C  0.94543931  0.24198532  0.27349876    -0.53400
C506        C  0.95466875  0.26376598  0.23038861     0.10700
H507        H  0.69365246  0.28065108  0.34644831     0.15200
H508        H  0.97300439  0.33144479  0.20282160     0.01000
H509        H  0.87558232  0.32397204  0.33146151     0.15500
H510        H  0.93645921  0.20689671  0.27410411     0.15300
C511        C  0.75495113  0.66971752  0.32068521     0.87100
C512        C  0.70311793  0.65251382  0.31896535    -0.53100
C513        C  0.69201806  0.63249324  0.27544484     0.10100
C514        C  0.73645836  0.62846172  0.23849235     0.21000
C515        C  0.79300366  0.62760705  0.30978478    -0.53800
C516        C  0.78390013  0.60623920  0.26634666     0.10200
C517        C  0.75632175  0.70003076  0.27413228    -0.53400
C518        C  0.74699467  0.67828001  0.23107924     0.10700
H519        H  0.00824364  0.66135584  0.34732324     0.15200
H520        H  0.72850797  0.61065981  0.20367537     0.01000
H521        H  0.82628560  0.61798553  0.33204526     0.15500
H522        H  0.76535666  0.73510100  0.27464859     0.15300
N523        N  0.94620303  0.19168267  0.42431663    -0.26700
N524        N  0.94129466  0.23117428  0.44833207    -0.34500
C525        C  0.93712336  0.26575570  0.41517846     0.01700
C526        C  0.93915676  0.24726797  0.36794467     0.07700
C527        C  0.94506859  0.20013234  0.37553810    -0.05400
H528        H  0.93580051  0.30169071  0.42464799     0.08400
H529        H  0.95207164  0.17356749  0.34797328     0.09600
Cu530      Cu  0.94577595  0.23590563  0.02489879     0.44200
Cu531      Cu  0.96173659  0.12713855  0.45684002     0.42000
Cu532      Cu  0.96919854  0.12499551  0.08784345     0.43900
N533        N  0.95186698  0.22813978  0.10118020    -0.34000
N534        N  0.95920248  0.18782709  0.12357978    -0.28300
C535        C  0.96088578  0.19440386  0.17262923    -0.04400
C536        C  0.95465469  0.24104967  0.18171432     0.07800
C537        C  0.94909561  0.26147495  0.13559193     0.01600
H538        H  0.96721913  0.16709406  0.19957115     0.09300
H539        H  0.94304424  0.29781070  0.12754546     0.08400
N540        N  0.98421095  0.06639431  0.04520406    -0.35500
N541        N  0.98203099  0.06684959  0.49642871    -0.27700
C542        C  0.99659033  0.02417292  0.47949319    -0.02900
C543        C  0.00843639  0.99561212  0.01971684     0.05700
C544        C  0.99996629  0.02361675  0.06070154     0.03800
H545        H  0.99907100  0.01481876  0.44083572     0.08900
H546        H  0.00588105  0.01389391  0.09901523     0.07700
N547        N  0.75602660  0.75016007  0.42487581    -0.26700
N548        N  0.76055825  0.71065203  0.44895321    -0.34500
C549        C  0.76458073  0.67609707  0.41585446     0.01700
C550        C  0.76280049  0.69461887  0.36859626     0.07700
C551        C  0.75725710  0.74174617  0.37611214    -0.05400
H552        H  0.76558701  0.64017648  0.42536833     0.08400
H553        H  0.75053400  0.76835811  0.34850323     0.09600
Cu554      Cu  0.75578798  0.70586859  0.02550019     0.44200
Cu555      Cu  0.74075320  0.81473802  0.45721742     0.42000
Cu556      Cu  0.73321069  0.81687719  0.08809832     0.43900
N557        N  0.74983075  0.71373679  0.10175207    -0.34000
N558        N  0.74282873  0.75408190  0.12401763    -0.28300
C559        C  0.74117276  0.74757577  0.17309203    -0.04400
C560        C  0.74707527  0.70094206  0.18233523     0.07800
C561        C  0.75242119  0.68044866  0.13628125     0.01600
H562        H  0.73508575  0.77493252  0.19993975     0.09300
H563        H  0.75821485  0.64409750  0.12835641     0.08400
N564        N  0.71826558  0.87549646  0.04538393    -0.35500
N565        N  0.72046313  0.87505414  0.49661395    -0.27700
C566        C  0.70588730  0.91773297  0.47959144    -0.02900
C567        C  0.69401684  0.94627686  0.01976098     0.05700
C568        C  0.70248523  0.91825995  0.06079909     0.03800
H569        H  0.70340762  0.92709937  0.44091514     0.08900
H570        H  0.69654587  0.92796197  0.09909265     0.07700
N571        N  0.75242918  0.34077266  0.73656115    -0.02800
C572        C  0.80233812  0.32608228  0.73455786    -0.00200
C573        C  0.81137667  0.28180074  0.75213259    -0.23100
C574        C  0.76556391  0.26970069  0.76762784    -0.23300
C575        C  0.73004750  0.30696722  0.75855806    -0.00300
H576        H  0.84692489  0.26056858  0.75383883     0.13400
H577        H  0.75904615  0.23750693  0.78467049     0.13500
N578        N  0.82137995  0.57450010  0.74188446    -0.02800
C579        C  0.86151254  0.58781404  0.71650430    -0.00200
C580        C  0.87148904  0.56177825  0.67468930    -0.23700
C581        C  0.83822212  0.53020339  0.67454466    -0.23300
C582        C  0.80956796  0.53710743  0.71688782    -0.00300
H583        H  0.90024595  0.56527211  0.64727488     0.13400
H584        H  0.83325789  0.50665219  0.64486661     0.13500
N585        N  0.94923662  0.60151081  0.73739569    -0.02800
C586        C  0.89933798  0.61623489  0.73540195    -0.00200
C587        C  0.89032494  0.66043300  0.75312388    -0.23100
C588        C  0.93614146  0.67242205  0.76871818    -0.23300
C589        C  0.97163318  0.63518139  0.75954452    -0.00300
H590        H  0.85480740  0.68169113  0.75482690     0.13400
H591        H  0.94268293  0.70453907  0.78584380     0.13500
O592        O  0.97749944  0.53148894  0.77294795    -0.72300
O593        O  0.72431051  0.41055565  0.77254227    -0.73300
O594        O  0.74742451  0.50510457  0.76807301    -0.61900
O595        O  0.95438365  0.43695494  0.76798864    -0.70300
O596        O  0.95381353  0.44694366  0.68669970    -0.69900
O597        O  0.74781817  0.49572166  0.68672241    -0.61100
O598        O  0.71827069  0.40573252  0.69092148    -0.73600
O599        O  0.98333281  0.53689109  0.69134640    -0.72400
Cu600      Cu  0.68424345  0.47101636  0.77359932     1.04600
Cu601      Cu  0.68414029  0.47133322  0.68616031     1.04300
C602        C  0.97071632  0.55473497  0.73345456     0.93900
C603        C  0.73096847  0.38758321  0.73291046     0.93000
C604        C  0.76622025  0.51163552  0.72524689     0.85200
C605        C  0.93550004  0.43073573  0.72514596     0.91400
N606        N  0.88033448  0.36773231  0.74135038    -0.02800
C607        C  0.84015794  0.35465710  0.71588003    -0.00200
C608        C  0.83013245  0.38107036  0.67427969    -0.23100
C609        C  0.86339145  0.41264757  0.67439121    -0.23300
C610        C  0.89212286  0.40534788  0.71665409    -0.00300
H611        H  0.80134830  0.37782430  0.64683564     0.13400
H612        H  0.86831148  0.43646702  0.64490789     0.13500
C613        C  0.94689427  0.27225502  0.81999653     0.87100
C614        C  0.66537586  0.28950057  0.81813672    -0.53100
C615        C  0.67635874  0.30958088  0.77455859     0.10100
C616        C  0.96516352  0.31360598  0.73769102     0.21000
C617        C  0.90878768  0.31435449  0.80911491    -0.53800
C618        C  0.91778831  0.33578578  0.76563938     0.10200
C619        C  0.94543954  0.24198522  0.77349879    -0.53400
C620        C  0.95466889  0.26376585  0.73038858     0.10700
H621        H  0.69365229  0.28065126  0.84644801     0.15200
H622        H  0.97300440  0.33144464  0.70282161     0.01000
H623        H  0.87558244  0.32397186  0.83146161     0.15500
H624        H  0.93645935  0.20689662  0.77410422     0.15300
C625        C  0.75495127  0.66971750  0.82068522     0.87100
C626        C  0.70311809  0.65251377  0.81896546    -0.53100
C627        C  0.69201817  0.63249311  0.77544497     0.10100
C628        C  0.73645843  0.62846162  0.73849245     0.21000
C629        C  0.79300386  0.62760703  0.80978482    -0.53800
C630        C  0.78390028  0.60623916  0.76634668     0.10200
C631        C  0.75632176  0.70003067  0.77413227    -0.53400
C632        C  0.74699465  0.67827993  0.73107924     0.10700
H633        H  0.00824370  0.66135579  0.84732329     0.15200
H634        H  0.72850797  0.61065965  0.70367534     0.01000
H635        H  0.82628567  0.61798560  0.83204515     0.15500
H636        H  0.76535672  0.73510105  0.77464856     0.15300
N637        N  0.94620296  0.19168269  0.92431678    -0.26700
N638        N  0.94129477  0.23117431  0.94833220    -0.34500
C639        C  0.93712357  0.26575572  0.91517857     0.01700
C640        C  0.93915698  0.24726797  0.86794477     0.07700
C641        C  0.94506865  0.20013234  0.87553824    -0.05400
H642        H  0.93580076  0.30169072  0.92464806     0.08400
H643        H  0.95207168  0.17356747  0.84797344     0.09600
Cu644      Cu  0.94577578  0.23590565  0.52489864     0.44200
Cu645      Cu  0.96173639  0.12713858  0.95684017     0.42000
Cu646      Cu  0.96919872  0.12499554  0.58784326     0.43900
N647        N  0.95186706  0.22813978  0.60118006    -0.34000
N648        N  0.95920268  0.18782706  0.62357962    -0.28300
C649        C  0.96088592  0.19440379  0.67262908    -0.04400
C650        C  0.95465460  0.24104958  0.68171425     0.07800
C651        C  0.94909548  0.26147488  0.63559187     0.01600
H652        H  0.96721942  0.16709396  0.69957099     0.09300
H653        H  0.94304395  0.29781073  0.62754544     0.08400
N654        N  0.98421113  0.06639432  0.54520399    -0.35500
N655        N  0.98203081  0.06684959  0.99642877    -0.27700
C656        C  0.99659015  0.02417291  0.97949315    -0.02900
C657        C  0.00843658  0.99561212  0.51971685     0.05700
C658        C  0.99996648  0.02361677  0.56070152     0.03800
H659        H  0.99907079  0.01481885  0.94083600     0.08900
H660        H  0.00588124  0.01389393  0.59901516     0.07700
N661        N  0.75602652  0.75016009  0.92487586    -0.26700
N662        N  0.76055837  0.71065201  0.94895322    -0.34500
C663        C  0.76458098  0.67609709  0.91585442     0.01700
C664        C  0.76280069  0.69461892  0.86859625     0.07700
C665        C  0.75725716  0.74174619  0.87611224    -0.05400
H666        H  0.76558738  0.64017645  0.92536822     0.08400
H667        H  0.75053398  0.76835833  0.84850315     0.09600
Cu668      Cu  0.75578779  0.70586861  0.52550025     0.44200
Cu669      Cu  0.74075301  0.81473800  0.95721754     0.42000
Cu670      Cu  0.73321088  0.81687716  0.58809820     0.43900
N671        N  0.74983061  0.71373676  0.60175208    -0.34000
N672        N  0.74282885  0.75408189  0.62401764    -0.28300
C673        C  0.74117302  0.74757570  0.67309200    -0.04400
C674        C  0.74707534  0.70094199  0.68233523     0.07800
C675        C  0.75242102  0.68044869  0.63628126     0.01600
H676        H  0.73508612  0.77493257  0.69993989     0.09300
H677        H  0.75821455  0.64409722  0.62835636     0.08400
N678        N  0.71826576  0.87549648  0.54538405    -0.35500
N679        N  0.72046293  0.87505415  0.99661384    -0.27700
C680        C  0.70588710  0.91773301  0.97959125    -0.02900
C681        C  0.69401703  0.94627684  0.51976108     0.05700
C682        C  0.70248541  0.91825997  0.56079922     0.03800
H683        H  0.70340743  0.92709934  0.94091523     0.08900
H684        H  0.69654604  0.92796201  0.59909279     0.07700
loop_ 
_geom_bond_atom_site_label_1 
_geom_bond_atom_site_label_2 
_geom_bond_distance 
_geom_bond_site_symmetry_2 
_ccdc_geom_bond_type 
N1            C5   1.352       .  A
N1            C2   1.357       .  A
N1           C33   1.431       .  S
C2            C3   1.378       .  A
C2           C37   1.474       .  S
C3            C4   1.379       .  A
C3            H6   1.078       .  S
C4            C5   1.387       .  A
C4            H7   1.082       .  S
C5           C45   1.494       .  S
N8           C12   1.357       .  A
N8            C9   1.368       .  A
N8           C60   1.450       .  S
C9           C10   1.375       .  A
C9           C16   1.474       .  S
C10          C11   1.355       .  A
C10          H13   1.082       .  S
C11          C12   1.381       .  A
C11          H14   1.078       .  S
C12          C34   1.466       .  S
N15          C19   1.352       .  A
N15          C16   1.357       .  A
N15          C32   1.431       .  S
C16          C17   1.378       .  A
C17          C18   1.379       .  A
C17          H20   1.077       .  S
C18          C19   1.387       .  A
C18          H21   1.082       .  S
C19         C285   1.494       .  S
O22          C32   1.269       .  A
O22        Cu258   1.967       .  S
O23          C33   1.269       .  A
O23         Cu30   1.967       .  S
O24          C34   1.286       .  A
O24         Cu30   2.064       .  S
O25          C35   1.286       .  A
O25        Cu258   2.064       .  S
O26          C35   1.265       .  A
O26        Cu259   1.921       .  S
O27          C34   1.265       .  A
O27         Cu31   1.921       .  S
O28          C33   1.284       .  A
O28         Cu31   2.039       .  S
O29          C32   1.284       .  A
O29        Cu259   2.039       .  S
Cu30        O478   1.967   1_455  S
Cu30        O481   2.064   1_455  S
Cu30        Cu31   2.366       .  S
Cu31        O482   1.921   1_455  S
Cu31        O485   2.039   1_455  S
C35          C40   1.466       .  S
N36          C40   1.357       .  A
N36          C37   1.368       .  A
N36          C48   1.450       .  S
C37          C38   1.375       .  A
C38          C39   1.355       .  A
C38          H41   1.082       .  S
C39          C40   1.381       .  A
C39          H42   1.078       .  S
C43          C49   1.544       .  S
C43          C47   1.538       .  S
C43         C272   1.529       .  S
C43          C70   1.515       .  S
C44         C499   1.529       .  S
C44          H51   1.087   1_655  S
C44          C45   1.364   1_655  D
C45         C502   1.548   1_455  S
C46          C50   1.533       .  S
C46          C48   1.555       .  S
C46         C273   1.548       .  S
C46          H52   1.110       .  S
C47          H53   1.086       .  S
C47          C48   1.367       .  D
C49          H54   1.083       .  S
C49          C50   1.365       .  D
C50          C80   1.477       .  S
C55          C56   1.529       .  S
C55          C61   1.544       .  S
C55          C59   1.539       .  S
C55          C94   1.515       .  S
C56         H519   1.087       .  S
C56          C57   1.364       .  D
C57         C475   1.494   1_455  S
C57          C58   1.548       .  S
C58          C62   1.532       .  S
C58          C60   1.555       .  S
C58          H64   1.110       .  S
C59          H65   1.086       .  S
C59          C60   1.367       .  D
C61          H66   1.083       .  S
C61          C62   1.365       .  D
C62         C104   1.476       .  S
H63         C284   1.087       .  S
N67          C71   1.342       .  A
N67          N68   1.323       .  A
N67         Cu75   2.086       .  S
N68          C69   1.349       .  A
N68        Cu188   2.081       .  S
C69          C70   1.388       .  A
C69          H72   1.082       .  S
C70          C71   1.389       .  A
C71          H73   1.080       .  S
Cu74         N77   2.081       .  S
Cu74        N182   2.081   1_554  S
Cu75         N85   2.086       .  S
Cu76         N78   2.073       .  S
Cu76         N84   2.073       .  S
N77          C81   1.347       .  A
N77          N78   1.323       .  A
N78          C79   1.343       .  A
C79          C80   1.382       .  A
C79          H82   1.082       .  S
C80          C81   1.384       .  A
C81          H83   1.082       .  S
N84          C88   1.345       .  A
N84         N199   1.321   1_554  A
N85          C86   1.349       .  A
N85         N198   1.321       .  A
C86         C201   1.387   1_545  A
C86          H89   1.082       .  S
C87          C88   1.384   1_565  A
C87         C200   1.387   1_564  A
C87         C339   1.478       .  S
C88          H90   1.082       .  S
N91          C95   1.342       .  A
N91          N92   1.323       .  A
N91         Cu99   2.086       .  S
N92          C93   1.349       .  A
N92        Cu212   2.081       .  S
C93          C94   1.387       .  A
C93          H96   1.082       .  S
C94          C95   1.389       .  A
C95          H97   1.080       .  S
Cu98        N101   2.080       .  S
Cu98        N206   2.081   1_554  S
Cu99        N109   2.086       .  S
Cu100       N102   2.072       .  S
Cu100       N108   2.072       .  S
N101        C105   1.347       .  A
N101        N102   1.323       .  A
N102        C103   1.343       .  A
C103        C104   1.382       .  A
C103        H106   1.082       .  S
C104        C105   1.385       .  A
C105        H107   1.082       .  S
N108        C112   1.345       .  A
N108        N223   1.321   1_554  A
N109        C110   1.349       .  A
N109        N222   1.321       .  A
C110        C225   1.388       .  A
C110        H113   1.082       .  S
C111        C112   1.384       .  A
C111        C224   1.388   1_554  A
C111        C543   1.478       .  S
C112        H114   1.082       .  S
N115        C119   1.352       .  A
N115        C116   1.357       .  A
N115        C147   1.431       .  S
C116        C117   1.378       .  A
C116        C151   1.474       .  S
C117        C118   1.379       .  A
C117        H120   1.078       .  S
C118        C119   1.387       .  A
C118        H121   1.082       .  S
C119        C159   1.494       .  S
N122        C126   1.357       .  A
N122        C123   1.368       .  A
N122        C174   1.450       .  S
C123        C124   1.375       .  A
C123        C130   1.474       .  S
C124        C125   1.355       .  A
C124        H127   1.082       .  S
C125        C126   1.381       .  A
C125        H128   1.078       .  S
C126        C148   1.466       .  S
N129        C133   1.352       .  A
N129        C130   1.357       .  A
N129        C146   1.431       .  S
C130        C131   1.378       .  A
C131        C132   1.379       .  A
C131        H134   1.077       .  S
C132        C133   1.387       .  A
C132        H135   1.082       .  S
C133        C399   1.494       .  S
O136        C146   1.269       .  A
O136       Cu372   1.967       .  S
O137        C147   1.269       .  A
O137       Cu144   1.967       .  S
O138        C148   1.286       .  A
O138       Cu144   2.064       .  S
O139        C149   1.286       .  A
O139       Cu372   2.064       .  S
O140        C149   1.265       .  A
O140       Cu373   1.921       .  S
O141        C148   1.265       .  A
O141       Cu145   1.921       .  S
O142        C147   1.284       .  A
O142       Cu145   2.039       .  S
O143        C146   1.284       .  A
O143       Cu373   2.039       .  S
Cu144       O592   1.967   1_455  S
Cu144       O595   2.064   1_455  S
Cu144      Cu145   2.366       .  S
Cu145       O596   1.921   1_455  S
Cu145       O599   2.039   1_455  S
C149        C154   1.466       .  S
N150        C154   1.357       .  A
N150        C151   1.368       .  A
N150        C162   1.450       .  S
C151        C152   1.375       .  A
C152        C153   1.355       .  A
C152        H155   1.082       .  S
C153        C154   1.381       .  A
C153        H156   1.078       .  S
C157        C386   1.529       .  S
C157        C163   1.544       .  S
C157        C161   1.538       .  S
C157        C184   1.515       .  S
C158        C613   1.529       .  S
C158        H165   1.087   1_655  S
C158        C159   1.364   1_655  D
C159        C616   1.548   1_455  S
C160        C387   1.548       .  S
C160        C164   1.533       .  S
C160        C162   1.555       .  S
C160        H166   1.110       .  S
C161        H167   1.086       .  S
C161        C162   1.367       .  D
C163        H168   1.083       .  S
C163        C164   1.365       .  D
C164        C194   1.477       .  S
C169        C170   1.529       .  S
C169        C175   1.544       .  S
C169        C173   1.539       .  S
C169        C208   1.515       .  S
C170        H633   1.087       .  S
C170        C171   1.364       .  D
C171        C589   1.494   1_455  S
C171        C172   1.548       .  S
C172        C176   1.532       .  S
C172        C174   1.555       .  S
C172        H178   1.110       .  S
C173        H179   1.086       .  S
C173        C174   1.367       .  D
C175        H180   1.083       .  S
C175        C176   1.365       .  D
C176        C218   1.476       .  S
H177        C398   1.087       .  S
N181        C185   1.342       .  A
N181        N182   1.323       .  A
N181       Cu189   2.086       .  S
N182        C183   1.349       .  A
C183        C184   1.388       .  A
C183        H186   1.082       .  S
C184        C185   1.389       .  A
C185        H187   1.080       .  S
Cu188       N191   2.081       .  S
Cu189       N199   2.086       .  S
Cu190       N192   2.073       .  S
Cu190       N198   2.073       .  S
N191        C195   1.347       .  A
N191        N192   1.323       .  A
N192        C193   1.343       .  A
C193        C194   1.382       .  A
C193        H196   1.082       .  S
C194        C195   1.384       .  A
C195        H197   1.082       .  S
N198        C202   1.345       .  A
N199        C200   1.349       .  A
C200        H203   1.082       .  S
C201        C202   1.384   1_565  A
C201        C453   1.478       .  S
C202        H204   1.082       .  S
N205        C209   1.342       .  A
N205        N206   1.323       .  A
N205       Cu213   2.086       .  S
N206        C207   1.349       .  A
C207        C208   1.387       .  A
C207        H210   1.082       .  S
C208        C209   1.389       .  A
C209        H211   1.080       .  S
Cu212       N215   2.080       .  S
Cu213       N223   2.086       .  S
Cu214       N216   2.072       .  S
Cu214       N222   2.072       .  S
N215        C219   1.347       .  A
N215        N216   1.323       .  A
N216        C217   1.343       .  A
C217        C218   1.382       .  A
C217        H220   1.082       .  S
C218        C219   1.385       .  A
C219        H221   1.082       .  S
N222        C226   1.345       .  A
N223        C224   1.349       .  A
C224        H227   1.082       .  S
C225        C226   1.384       .  A
C225        C657   1.478       .  S
C226        H228   1.082       .  S
N229        C233   1.352       .  A
N229        C230   1.357       .  A
N229        C261   1.431       .  S
C230        C231   1.378       .  A
C230        C265   1.474       .  S
C231        C232   1.379       .  A
C231        H234   1.078       .  S
C232        C233   1.387       .  A
C232        H235   1.082       .  S
C233        C273   1.494       .  S
N236        C240   1.357       .  A
N236        C237   1.368       .  A
N236        C288   1.450       .  S
C237        C238   1.375       .  A
C237        C244   1.474       .  S
C238        C239   1.355       .  A
C238        H241   1.082       .  S
C239        C240   1.381       .  A
C239        H242   1.078       .  S
C240        C262   1.466       .  S
N243        C247   1.352       .  A
N243        C244   1.357       .  A
N243        C260   1.431       .  S
C244        C245   1.378       .  A
C245        C246   1.379       .  A
C245        H248   1.077       .  S
C246        C247   1.387       .  A
C246        H249   1.082       .  S
C247        C513   1.494       .  S
O250        C260   1.269       .  A
O250       Cu486   1.967       .  S
O251        C261   1.269       .  A
O251       Cu258   1.967       .  S
O252        C262   1.286       .  A
O252       Cu258   2.064       .  S
O253        C263   1.286       .  A
O253       Cu486   2.064       .  S
O254        C263   1.265       .  A
O254       Cu487   1.921       .  S
O255        C262   1.265       .  A
O255       Cu259   1.921       .  S
O256        C261   1.284       .  A
O256       Cu259   2.039       .  S
O257        C260   1.284       .  A
O257       Cu487   2.039       .  S
Cu258      Cu259   2.366       .  S
C263        C268   1.466       .  S
N264        C268   1.357       .  A
N264        C265   1.368       .  A
N264        C276   1.450       .  S
C265        C266   1.375       .  A
C266        C267   1.355       .  A
C266        H269   1.082       .  S
C267        C268   1.381       .  A
C267        H270   1.078       .  S
C271        C500   1.529       .  S
C271        C277   1.544       .  S
C271        C275   1.538       .  S
C271        C298   1.515       .  S
C272        H279   1.087       .  S
C272        C273   1.364       .  D
C274        C501   1.548       .  S
C274        C278   1.533       .  S
C274        C276   1.555       .  S
C274        H280   1.110       .  S
C275        H281   1.086       .  S
C275        C276   1.367       .  D
C277        H282   1.083       .  S
C277        C278   1.365       .  D
C278        C308   1.477       .  S
C283        C284   1.529       .  S
C283        C289   1.544       .  S
C283        C287   1.539       .  S
C283        C322   1.515       .  S
C284        C285   1.364       .  D
C285        C286   1.548       .  S
C286        C290   1.532       .  S
C286        C288   1.555       .  S
C286        H292   1.110       .  S
C287        H293   1.086       .  S
C287        C288   1.367       .  D
C289        H294   1.083       .  S
C289        C290   1.365       .  D
C290        C332   1.476       .  S
H291        C512   1.087       .  S
N295        C299   1.342       .  A
N295        N296   1.323       .  A
N295       Cu303   2.086       .  S
N296        C297   1.349       .  A
N296       Cu416   2.081       .  S
C297        C298   1.388       .  A
C297        H300   1.082       .  S
C298        C299   1.389       .  A
C299        H301   1.080       .  S
Cu302       N410   2.081   1_554  S
Cu302       N305   2.081       .  S
Cu303       N313   2.086       .  S
Cu304       N306   2.073       .  S
Cu304       N312   2.073       .  S
N305        C309   1.347       .  A
N305        N306   1.323       .  A
N306        C307   1.343       .  A
C307        C308   1.382       .  A
C307        H310   1.082       .  S
C308        C309   1.384       .  A
C309        H311   1.082       .  S
N312        C316   1.345       .  A
N312        N427   1.321   1_554  A
N313        C314   1.349       .  A
N313        N426   1.321       .  A
C314        C429   1.387   1_545  A
C314        H317   1.082       .  S
C315        C428   1.387   1_564  A
C315        C316   1.384   1_565  A
C315        C567   1.478       .  S
C316        H318   1.082       .  S
N319        C323   1.342       .  A
N319        N320   1.323       .  A
N319       Cu327   2.086       .  S
N320        C321   1.349       .  A
N320       Cu440   2.081       .  S
C321        C322   1.387       .  A
C321        H324   1.082       .  S
C322        C323   1.389       .  A
C323        H325   1.080       .  S
Cu326       N434   2.081   1_554  S
Cu326       N329   2.080       .  S
Cu327       N337   2.086       .  S
Cu328       N330   2.072       .  S
Cu328       N336   2.072       .  S
N329        C333   1.347       .  A
N329        N330   1.323       .  A
N330        C331   1.343       .  A
C331        C332   1.382       .  A
C331        H334   1.082       .  S
C332        C333   1.385       .  A
C333        H335   1.082       .  S
N336        C340   1.345       .  A
N336        N451   1.321   1_554  A
N337        C338   1.349       .  A
N337        N450   1.321       .  A
C338        C453   1.388       .  A
C338        H341   1.082       .  S
C339        C452   1.388   1_554  A
C339        C340   1.384       .  A
C340        H342   1.082       .  S
N343        C347   1.352       .  A
N343        C344   1.357       .  A
N343        C375   1.431       .  S
C344        C345   1.378       .  A
C344        C379   1.474       .  S
C345        C346   1.379       .  A
C345        H348   1.078       .  S
C346        C347   1.387       .  A
C346        H349   1.082       .  S
C347        C387   1.494       .  S
N350        C354   1.357       .  A
N350        C351   1.368       .  A
N350        C402   1.450       .  S
C351        C352   1.375       .  A
C351        C358   1.474       .  S
C352        C353   1.355       .  A
C352        H355   1.082       .  S
C353        C354   1.381       .  A
C353        H356   1.078       .  S
C354        C376   1.466       .  S
N357        C361   1.352       .  A
N357        C358   1.357       .  A
N357        C374   1.431       .  S
C358        C359   1.379       .  A
C359        C360   1.379       .  A
C359        H362   1.077       .  S
C360        C361   1.387       .  A
C360        H363   1.082       .  S
C361        C627   1.494       .  S
O364        C374   1.269       .  A
O364       Cu600   1.967       .  S
O365        C375   1.269       .  A
O365       Cu372   1.967       .  S
O366        C376   1.286       .  A
O366       Cu372   2.064       .  S
O367        C377   1.286       .  A
O367       Cu600   2.064       .  S
O368        C377   1.265       .  A
O368       Cu601   1.921       .  S
O369        C376   1.265       .  A
O369       Cu373   1.921       .  S
O370        C375   1.284       .  A
O370       Cu373   2.039       .  S
O371        C374   1.284       .  A
O371       Cu601   2.039       .  S
Cu372      Cu373   2.366       .  S
C377        C382   1.466       .  S
N378        C382   1.357       .  A
N378        C379   1.368       .  A
N378        C390   1.450       .  S
C379        C380   1.375       .  A
C380        C381   1.355       .  A
C380        H383   1.082       .  S
C381        C382   1.381       .  A
C381        H384   1.078       .  S
C385        C614   1.529       .  S
C385        C391   1.544       .  S
C385        C389   1.538       .  S
C385        C412   1.515       .  S
C386        H393   1.087       .  S
C386        C387   1.364       .  D
C388        C615   1.548       .  S
C388        C392   1.533       .  S
C388        C390   1.555       .  S
C388        H394   1.110       .  S
C389        H395   1.086       .  S
C389        C390   1.367       .  D
C391        H396   1.083       .  S
C391        C392   1.365       .  D
C392        C422   1.477       .  S
C397        C398   1.529       .  S
C397        C403   1.544       .  S
C397        C401   1.539       .  S
C397        C436   1.515       .  S
C398        C399   1.364       .  D
C399        C400   1.548       .  S
C400        C404   1.532       .  S
C400        C402   1.555       .  S
C400        H406   1.110       .  S
C401        H407   1.086       .  S
C401        C402   1.367       .  D
C403        H408   1.083       .  S
C403        C404   1.365       .  D
C404        C446   1.476       .  S
H405        C626   1.087       .  S
N409        C413   1.342       .  A
N409        N410   1.323       .  A
N409       Cu417   2.086       .  S
N410        C411   1.349       .  A
C411        C412   1.388       .  A
C411        H414   1.082       .  S
C412        C413   1.389       .  A
C413        H415   1.080       .  S
Cu416       N419   2.081       .  S
Cu417       N427   2.086       .  S
Cu418       N420   2.073       .  S
Cu418       N426   2.073       .  S
N419        C423   1.347       .  A
N419        N420   1.323       .  A
N420        C421   1.343       .  A
C421        C422   1.382       .  A
C421        H424   1.082       .  S
C422        C423   1.384       .  A
C423        H425   1.082       .  S
N426        C430   1.345       .  A
N427        C428   1.349       .  A
C428        H431   1.082       .  S
C429        C430   1.384   1_565  A
C429        C681   1.478       .  S
C430        H432   1.082       .  S
N433        C437   1.342       .  A
N433        N434   1.323       .  A
N433       Cu441   2.086       .  S
N434        C435   1.349       .  A
C435        C436   1.387       .  A
C435        H438   1.082       .  S
C436        C437   1.389       .  A
C437        H439   1.080       .  S
Cu440       N443   2.080       .  S
Cu441       N451   2.086       .  S
Cu442       N444   2.072       .  S
Cu442       N450   2.072       .  S
N443        C447   1.347       .  A
N443        N444   1.323       .  A
N444        C445   1.343       .  A
C445        C446   1.382       .  A
C445        H448   1.082       .  S
C446        C447   1.385       .  A
C447        H449   1.082       .  S
N450        C454   1.345       .  A
N451        C452   1.349       .  A
C452        H455   1.082       .  S
C453        C454   1.384       .  A
C454        H456   1.082       .  S
N457        C461   1.352       .  A
N457        C458   1.357       .  A
N457        C489   1.431       .  S
C458        C459   1.378       .  A
C458        C493   1.474       .  S
C459        C460   1.379       .  A
C459        H462   1.078       .  S
C460        C461   1.387       .  A
C460        H463   1.082       .  S
C461        C501   1.494       .  S
N464        C468   1.357       .  A
N464        C465   1.368       .  A
N464        C516   1.450       .  S
C465        C466   1.375       .  A
C465        C472   1.474       .  S
C466        C467   1.355       .  A
C466        H469   1.082       .  S
C467        C468   1.381       .  A
C467        H470   1.078       .  S
C468        C490   1.466       .  S
N471        C475   1.352       .  A
N471        C472   1.357       .  A
N471        C488   1.431       .  S
C472        C473   1.378       .  A
C473        C474   1.379       .  A
C473        H476   1.077       .  S
C474        C475   1.387       .  A
C474        H477   1.082       .  S
O478        C488   1.269       .  A
O479        C489   1.269       .  A
O479       Cu486   1.967       .  S
O480        C490   1.286       .  A
O480       Cu486   2.064       .  S
O481        C491   1.286       .  A
O482        C491   1.265       .  A
O483        C490   1.265       .  A
O483       Cu487   1.921       .  S
O484        C489   1.284       .  A
O484       Cu487   2.039       .  S
O485        C488   1.284       .  A
Cu486      Cu487   2.366       .  S
C491        C496   1.466       .  S
N492        C496   1.357       .  A
N492        C493   1.368       .  A
N492        C504   1.450       .  S
C493        C494   1.375       .  A
C494        C495   1.355       .  A
C494        H497   1.082       .  S
C495        C496   1.381       .  A
C495        H498   1.078       .  S
C499        C505   1.544       .  S
C499        C503   1.538       .  S
C499        C526   1.515       .  S
C500        H507   1.087       .  S
C500        C501   1.364       .  D
C502        C506   1.533       .  S
C502        C504   1.555       .  S
C502        H508   1.110       .  S
C503        H509   1.086       .  S
C503        C504   1.367       .  D
C505        H510   1.083       .  S
C505        C506   1.365       .  D
C506        C536   1.477       .  S
C511        C512   1.529       .  S
C511        C517   1.544       .  S
C511        C515   1.539       .  S
C511        C550   1.515       .  S
C512        C513   1.364       .  D
C513        C514   1.548       .  S
C514        C518   1.532       .  S
C514        C516   1.555       .  S
C514        H520   1.110       .  S
C515        H521   1.086       .  S
C515        C516   1.367       .  D
C517        H522   1.083       .  S
C517        C518   1.365       .  D
C518        C560   1.476       .  S
N523        C527   1.342       .  A
N523        N524   1.323       .  A
N523       Cu531   2.086       .  S
N524        C525   1.349       .  A
N524       Cu644   2.081       .  S
C525        C526   1.388       .  A
C525        H528   1.082       .  S
C526        C527   1.389       .  A
C527        H529   1.080       .  S
Cu530       N638   2.081   1_554  S
Cu530       N533   2.081       .  S
Cu531       N541   2.086       .  S
Cu532       N534   2.073       .  S
Cu532       N540   2.073       .  S
N533        C537   1.347       .  A
N533        N534   1.323       .  A
N534        C535   1.343       .  A
C535        C536   1.382       .  A
C535        H538   1.082       .  S
C536        C537   1.384       .  A
C537        H539   1.082       .  S
N540        C544   1.345       .  A
N540        N655   1.321   1_554  A
N541        C542   1.349       .  A
N541        N654   1.321       .  A
C542        C657   1.387   1_645  A
C542        H545   1.082       .  S
C543        C656   1.387   1_464  A
C543        C544   1.384   1_465  A
C544        H546   1.082   1_655  S
N547        C551   1.342       .  A
N547        N548   1.323       .  A
N547       Cu555   2.086       .  S
N548        C549   1.349       .  A
N548       Cu668   2.081       .  S
C549        C550   1.387       .  A
C549        H552   1.082       .  S
C550        C551   1.389       .  A
C551        H553   1.080       .  S
Cu554       N662   2.081   1_554  S
Cu554       N557   2.080       .  S
Cu555       N565   2.086       .  S
Cu556       N558   2.072       .  S
Cu556       N564   2.072       .  S
N557        C561   1.347       .  A
N557        N558   1.323       .  A
N558        C559   1.343       .  A
C559        C560   1.382       .  A
C559        H562   1.082       .  S
C560        C561   1.385       .  A
C561        H563   1.082       .  S
N564        C568   1.345       .  A
N564        N679   1.321   1_554  A
N565        C566   1.349       .  A
N565        N678   1.321       .  A
C566        C681   1.388       .  A
C566        H569   1.082       .  S
C567        C680   1.388   1_554  A
C567        C568   1.384       .  A
C568        H570   1.082       .  S
N571        C575   1.352       .  A
N571        C572   1.357       .  A
N571        C603   1.431       .  S
C572        C573   1.378       .  A
C572        C607   1.474       .  S
C573        C574   1.379       .  A
C573        H576   1.078       .  S
C574        C575   1.387       .  A
C574        H577   1.082       .  S
C575        C615   1.494       .  S
N578        C582   1.357       .  A
N578        C579   1.368       .  A
N578        C630   1.450       .  S
C579        C580   1.375       .  A
C579        C586   1.474       .  S
C580        C581   1.355       .  A
C580        H583   1.082       .  S
C581        C582   1.381       .  A
C581        H584   1.078       .  S
C582        C604   1.466       .  S
N585        C589   1.352       .  A
N585        C586   1.357       .  A
N585        C602   1.431       .  S
C586        C587   1.378       .  A
C587        C588   1.379       .  A
C587        H590   1.077       .  S
C588        C589   1.387       .  A
C588        H591   1.082       .  S
O592        C602   1.269       .  A
O593        C603   1.269       .  A
O593       Cu600   1.967       .  S
O594        C604   1.286       .  A
O594       Cu600   2.064       .  S
O595        C605   1.286       .  A
O596        C605   1.265       .  A
O597        C604   1.265       .  A
O597       Cu601   1.921       .  S
O598        C603   1.284       .  A
O598       Cu601   2.039       .  S
O599        C602   1.284       .  A
Cu600      Cu601   2.366       .  S
C605        C610   1.466       .  S
N606        C610   1.357       .  A
N606        C607   1.368       .  A
N606        C618   1.450       .  S
C607        C608   1.375       .  A
C608        C609   1.355       .  A
C608        H611   1.082       .  S
C609        C610   1.381       .  A
C609        H612   1.078       .  S
C613        C619   1.544       .  S
C613        C617   1.538       .  S
C613        C640   1.515       .  S
C614        H621   1.087       .  S
C614        C615   1.364       .  D
C616        C620   1.533       .  S
C616        C618   1.555       .  S
C616        H622   1.110       .  S
C617        H623   1.086       .  S
C617        C618   1.367       .  D
C619        H624   1.083       .  S
C619        C620   1.365       .  D
C620        C650   1.477       .  S
C625        C626   1.529       .  S
C625        C631   1.544       .  S
C625        C629   1.539       .  S
C625        C664   1.515       .  S
C626        C627   1.364       .  D
C627        C628   1.548       .  S
C628        C632   1.532       .  S
C628        C630   1.555       .  S
C628        H634   1.110       .  S
C629        H635   1.086       .  S
C629        C630   1.367       .  D
C631        H636   1.083       .  S
C631        C632   1.365       .  D
C632        C674   1.476       .  S
N637        C641   1.342       .  A
N637        N638   1.323       .  A
N637       Cu645   2.086       .  S
N638        C639   1.349       .  A
C639        C640   1.388       .  A
C639        H642   1.082       .  S
C640        C641   1.389       .  A
C641        H643   1.080       .  S
Cu644       N647   2.081       .  S
Cu645       N655   2.086       .  S
Cu646       N648   2.073       .  S
Cu646       N654   2.073       .  S
N647        C651   1.347       .  A
N647        N648   1.323       .  A
N648        C649   1.343       .  A
C649        C650   1.382       .  A
C649        H652   1.082       .  S
C650        C651   1.384       .  A
C651        H653   1.082       .  S
N654        C658   1.345       .  A
N655        C656   1.349       .  A
C656        H659   1.082       .  S
C657        C658   1.384   1_465  A
C658        H660   1.082   1_655  S
N661        C665   1.342       .  A
N661        N662   1.323       .  A
N661       Cu669   2.086       .  S
N662        C663   1.349       .  A
C663        C664   1.387       .  A
C663        H666   1.082       .  S
C664        C665   1.389       .  A
C665        H667   1.080       .  S
Cu668       N671   2.080       .  S
Cu669       N679   2.086       .  S
Cu670       N672   2.072       .  S
Cu670       N678   2.072       .  S
N671        C675   1.347       .  A
N671        N672   1.323       .  A
N672        C673   1.343       .  A
C673        C674   1.382       .  A
C673        H676   1.082       .  S
C674        C675   1.385       .  A
C675        H677   1.082       .  S
N678        C682   1.345       .  A
N679        C680   1.349       .  A
C680        H683   1.082       .  S
C681        C682   1.384       .  A
C682        H684   1.082       .  S
