geometry optimzed in LAMMPS
_audit_creation_date              2020-12-01 
_audit_creation_method            'lammps2cif' 
_symmetry_space_group_name_H-M    'P1' 
_symmetry_Int_Tables_number       1 
_symmetry_cell_setting            triclinic 
loop_ 
_symmetry_equiv_pos_as_xyz 
  x,y,z 
_cell_length_a                    55.74631425 
_cell_length_b                    56.074765971605004 
_cell_length_c                    38.766155461120164 
_cell_angle_alpha                 90.03416675527491 
_cell_angle_beta                  90.34269121042713 
_cell_angle_gamma                 90.06637893656813 
loop_ 
_atom_site_label 
_atom_site_type_symbol 
_atom_site_fract_x 
_atom_site_fract_y 
_atom_site_fract_z 
_atom_site_charge 
N1          N  0.54476510  0.51227203  0.05741127    -0.26600
N2          N  0.52624470  0.50296412  0.07385817    -0.34400
C3          C  0.51036567  0.49453343  0.05052569     0.01800
C4          C  0.51927514  0.49876484  0.01784721     0.07800
C5          C  0.54108953  0.51004297  0.02320888    -0.05300
H6          H  0.49358888  0.48594409  0.05693127     0.08500
H7          H  0.55343618  0.51618085  0.00369725     0.09700
Cu8        Cu  0.52330564  0.50193972  0.12730888     0.44200
Cu9        Cu  0.57413257  0.52819692  0.08181366     0.42000
Cu10       Cu  0.56857067  0.53553312  0.17368114     0.43900
N11         N  0.52589232  0.50275102  0.18083651    -0.34000
N12         N  0.54231371  0.51532473  0.19760686    -0.28200
C13         C  0.54016982  0.51128965  0.23162229    -0.04300
C14         C  0.52157153  0.49534151  0.23657053     0.07900
C15         C  0.51287643  0.49030983  0.20383004     0.01700
H16         H  0.55187857  0.51878249  0.25117846     0.09400
H17         H  0.49858523  0.47806101  0.19711832     0.08400
N18         N  0.59615714  0.55048091  0.14525435    -0.35400
N19         N  0.59914133  0.54661311  0.11190275    -0.27600
C20         C  0.61947675  0.55749689  0.10173622    -0.02800
C21         C  0.62948678  0.56901311  0.13002152     0.05800
C22         C  0.61415484  0.56431663  0.15703699     0.03900
H23         H  0.62610259  0.55758236  0.07556264     0.09000
H24         H  0.61615370  0.57017837  0.18349649     0.07800
N25         N  0.48398370  0.47709208  0.94451107    -0.26600
N26         N  0.50196198  0.48761340  0.92838984    -0.34400
C27         C  0.51703053  0.49711759  0.95190706     0.01800
C28         C  0.50815031  0.49239904  0.98444283     0.07800
C29         C  0.48714605  0.47970941  0.97879169    -0.05300
H30         H  0.53342448  0.50648228  0.94571963     0.08500
H31         H  0.47530182  0.47245366  0.99815011     0.09700
Cu32       Cu  0.50582451  0.48788491  0.87518288     0.44200
Cu33       Cu  0.45696833  0.45815299  0.91900715     0.42000
Cu34       Cu  0.46771560  0.44722582  0.82793195     0.43900
N35         N  0.50617973  0.48470624  0.82186716    -0.34000
N36         N  0.49279589  0.46922157  0.80464904    -0.28200
C37         C  0.49697221  0.47168436  0.77069234    -0.04300
C38         C  0.51362135  0.48972837  0.76636685     0.07900
C39         C  0.51906746  0.49759751  0.79931515     0.01700
H40         H  0.48801264  0.46156633  0.75062870     0.09400
H41         H  0.53137695  0.51172383  0.80641183     0.08400
N42         N  0.43993787  0.43174202  0.85542313    -0.35400
N43         N  0.43510007  0.43673582  0.88800798    -0.27600
C44         C  0.41506353  0.42493103  0.89719535    -0.02800
C45         C  0.40715464  0.41169103  0.86912716     0.05800
C46         C  0.42340523  0.41635960  0.84323706     0.03900
H47         H  0.40718994  0.42552655  0.92261710     0.09000
H48         H  0.42300358  0.40941137  0.81719457     0.07800
N49         N  0.51423670  0.45152515  0.44733410    -0.26600
N50         N  0.52367692  0.46960757  0.43026119    -0.34400
C51         C  0.53474906  0.48428585  0.45273539     0.01800
C52         C  0.53196494  0.47505974  0.48554194     0.07800
C53         C  0.51885321  0.45430658  0.48118944    -0.05300
H54         H  0.54357359  0.50076952  0.44576351     0.08500
H55         H  0.51284368  0.44225722  0.50114489     0.09700
Cu56       Cu  0.51974469  0.47413038  0.37750209     0.44200
Cu57       Cu  0.49485666  0.42443230  0.42372328     0.42000
Cu58       Cu  0.47953563  0.43357105  0.33311440     0.43900
N59         N  0.51274074  0.47555451  0.32499380    -0.34000
N60         N  0.49776203  0.46107481  0.30866991    -0.28200
C61         C  0.49806634  0.46622088  0.27473671    -0.04300
C62         C  0.51407180  0.48476400  0.26957054     0.07900
C63         C  0.52298943  0.49022983  0.30198004     0.01700
H64         H  0.48801054  0.45663610  0.25519966     0.09400
H65         H  0.53637307  0.50352922  0.30835089     0.08400
N66         N  0.46798766  0.40467974  0.36217868    -0.35400
N67         N  0.47458047  0.40078061  0.39452755    -0.27600
C68         C  0.46590122  0.37954280  0.40470078    -0.02800
C69         C  0.45291498  0.36981732  0.37770475     0.05800
C70         C  0.45457786  0.38620403  0.35113802     0.03900
H71         H  0.46881205  0.37178179  0.42992554     0.09000
H72         H  0.44736657  0.38444644  0.32529039     0.07800
N73         N  0.55609117  0.51029498  0.55666073    -0.26600
N74         N  0.54274253  0.49480384  0.57366745    -0.34400
C75         C  0.53274948  0.47947370  0.55109575     0.01800
C76         C  0.53994646  0.48578077  0.51828340     0.07800
C77         C  0.55473807  0.50538300  0.52272939    -0.05300
H78         H  0.52039670  0.46539360  0.55799106     0.08500
H79         H  0.56339884  0.51569204  0.50276837     0.09700
Cu80       Cu  0.53669386  0.49655037  0.62626116     0.44200
Cu81       Cu  0.57391869  0.53849908  0.58013013     0.42000
Cu82       Cu  0.55954508  0.54877182  0.67017766     0.43900
N83         N  0.53224261  0.50273224  0.67850782    -0.34000
N84         N  0.54093318  0.52162667  0.69475177    -0.28200
C85         C  0.53574064  0.51989303  0.72851142    -0.04300
C86         C  0.52299150  0.49901911  0.73361641     0.07900
C87         C  0.52102374  0.48863094  0.70137373     0.01700
H88         H  0.54079469  0.53291893  0.74783466     0.09400
H89         H  0.51239583  0.47189041  0.69502896     0.08400
N90         N  0.57961818  0.57210124  0.64040435    -0.35400
N91         N  0.58603010  0.56762714  0.60824801    -0.27600
C92         C  0.60015021  0.58543311  0.59701660    -0.02800
C93         C  0.60229141  0.60211154  0.62305973     0.05800
C94         C  0.58905858  0.59314659  0.65021927     0.03900
H95         H  0.60787630  0.58639227  0.57151565     0.09000
H96         H  0.58691710  0.60102459  0.67549495     0.07800
N97         N  0.80620500  0.60447696  0.11725721    -0.26600
N98         N  0.81789454  0.62488988  0.11404996    -0.34400
C99         C  0.84166565  0.62045412  0.11446204     0.01800
C100        C  0.84498794  0.59612631  0.11866931     0.07800
C101        C  0.82215919  0.58663207  0.12057462    -0.05300
H102        H  0.85546973  0.63399275  0.11307504     0.08500
H103        H  0.81746596  0.56805739  0.12396768     0.09700
Cu104      Cu  0.80060625  0.65784363  0.11271423     0.44200
Cu105      Cu  0.76904392  0.60158652  0.11679414     0.42000
Cu106      Cu  0.73526697  0.65597046  0.12332183     0.43900
N107        N  0.77891736  0.68796416  0.11722622    -0.34000
N108        N  0.75539592  0.68723277  0.12164313    -0.28200
C109        C  0.74705558  0.70966235  0.12455214    -0.04300
C110        C  0.76618453  0.72526827  0.12181180     0.07900
C111        C  0.78609226  0.71090491  0.11715340     0.01700
H112        H  0.72840689  0.71423792  0.12831539     0.09400
H113        H  0.80449530  0.71666674  0.11424389     0.08400
N114        N  0.71932451  0.62242949  0.12091878    -0.35400
N115        N  0.73179324  0.60258400  0.11694027    -0.27600
C116        C  0.71653351  0.58409149  0.11373169    -0.02800
C117        C  0.69337064  0.59260927  0.11648152     0.05800
C118        C  0.69577100  0.61701010  0.12107641     0.03900
H119        H  0.72192232  0.56574725  0.10998719     0.09000
H120        H  0.68147311  0.62993939  0.12332388     0.07800
N121        N  0.79985228  0.87448058  0.12126140    -0.26600
N122        N  0.81141528  0.85437704  0.11495103    -0.34400
C123        C  0.83476101  0.85925515  0.10990334     0.01800
C124        C  0.83817603  0.88349523  0.11390151     0.07800
C125        C  0.81568143  0.89264859  0.12112838    -0.05300
H126        H  0.84837237  0.84602202  0.10466306     0.08500
H127        H  0.81109768  0.91113832  0.12554853     0.09700
Cu128      Cu  0.79538934  0.82098366  0.11602702     0.44200
Cu129      Cu  0.76294433  0.87611567  0.12880378     0.42000
Cu130      Cu  0.73237780  0.81918031  0.13817128     0.43900
N131        N  0.77611009  0.78957867  0.12176607    -0.34000
N132        N  0.75310373  0.78883150  0.12984243    -0.28200
C133        C  0.74600963  0.76588112  0.13108168    -0.04300
C134        C  0.76552065  0.75153998  0.12360734     0.07900
C135        C  0.78429309  0.76717384  0.11791057     0.01700
H136        H  0.72797463  0.76009153  0.13695903     0.09400
H137        H  0.80253737  0.76264483  0.11119794     0.08400
N138        N  0.71510647  0.85207110  0.14062359    -0.35400
N139        N  0.72606569  0.87270509  0.13552750    -0.27600
C140        C  0.70964152  0.89029484  0.13584155    -0.02800
C141        C  0.68733339  0.88028608  0.14190905     0.05800
C142        C  0.69150521  0.85607771  0.14508648     0.03900
H143        H  0.71368850  0.90900120  0.13224520     0.09000
H144        H  0.67824246  0.84229462  0.14925947     0.07800
N145        N  0.48462054  0.01312653  0.95013082    -0.26600
N146        N  0.50118875  0.00102261  0.93322037    -0.34400
C147        C  0.51862692  0.99456047  0.95548284     0.01800
C148        C  0.51276198  0.00289697  0.98798134     0.07800
C149        C  0.49109332  0.01459821  0.98360896    -0.05300
H150        H  0.53419428  0.98413366  0.94859077     0.08500
H151        H  0.48054971  0.02316100  0.00340216     0.09700
Cu152      Cu  0.49908669  0.99278712  0.88086356     0.44200
Cu153      Cu  0.45327530  0.02607802  0.92737737     0.42000
Cu154      Cu  0.44364302  0.00868907  0.83849069     0.43900
N155        N  0.49255662  0.98716417  0.82851684    -0.34000
N156        N  0.47237756  0.99357624  0.81303309    -0.28200
C157        C  0.47385823  0.98858943  0.77918465    -0.04300
C158        C  0.49590070  0.97822772  0.77308984     0.07900
C159        C  0.50729691  0.97751190  0.80491769     0.01700
H160        H  0.45977464  0.99197563  0.76050559     0.09400
H161        H  0.52508657  0.97077870  0.81044155     0.08400
N162        N  0.41848211  0.02677257  0.86746034    -0.35400
N163        N  0.42241886  0.03438595  0.89929048    -0.27600
C164        C  0.40340942  0.04733541  0.90951721    -0.02800
C165        C  0.38666961  0.04754017  0.88294209     0.05800
C166        C  0.39673457  0.03419886  0.85685629     0.03900
H167        H  0.40182727  0.05578781  0.93449092     0.09000
H168        H  0.38917474  0.03082908  0.83154347     0.07800
N169        N  0.55241108  0.98518549  0.05866750    -0.26600
N170        N  0.53577534  0.99683808  0.07601771    -0.34400
C171        C  0.51944065  0.00550797  0.05354840     0.01800
C172        C  0.52609909  0.99889809  0.02050554     0.07800
C173        C  0.54711818  0.98608900  0.02477679    -0.05300
H174        H  0.50347490  0.01517738  0.06084658     0.08500
H175        H  0.55740909  0.97737113  0.00484926     0.09700
Cu176      Cu  0.53511343  0.99809939  0.12974909     0.44200
Cu177      Cu  0.58026178  0.96665864  0.08223969     0.42000
Cu178      Cu  0.57483654  0.95602492  0.17409895     0.43900
N179        N  0.53616158  0.99344173  0.18310368    -0.34000
N180        N  0.54977585  0.97752136  0.19907477    -0.28200
C181        C  0.54556814  0.97871072  0.23323671    -0.04300
C182        C  0.52868124  0.99633003  0.23907595     0.07900
C183        C  0.52316926  0.00529908  0.20672310     0.01700
H184        H  0.55452212  0.96787716  0.25245967     0.09400
H185        H  0.51053000  0.01934235  0.20072010     0.08400
N186        N  0.60181505  0.94120165  0.14375949    -0.41800
N187        N  0.60439515  0.94631351  0.11067374    -0.27600
C188        C  0.62472726  0.93626821  0.09915766    -0.02800
C189        C  0.63530198  0.92388232  0.12600311     0.05800
C190        C  0.62028937  0.92732752  0.15395857     0.03900
H191        H  0.63141541  0.93799134  0.07313160     0.09000
H192        H  0.62317500  0.92119256  0.18010749     0.07800
N193        N  0.52218016  0.94958425  0.55941575    -0.26600
N194        N  0.50937388  0.96533772  0.57674935    -0.34400
C195        C  0.49958715  0.98091565  0.55431201     0.01800
C196        C  0.50661736  0.97467090  0.52129952     0.07800
C197        C  0.52094776  0.95473821  0.52554417    -0.05300
H198        H  0.48840800  0.99583251  0.56156600     0.08500
H199        H  0.52995406  0.94477246  0.50554248     0.09700
Cu200      Cu  0.50677837  0.96531033  0.63031973     0.44200
Cu201      Cu  0.54111209  0.92210622  0.58283858     0.42000
Cu202      Cu  0.54708219  0.92492689  0.67588195     0.43900
N203        N  0.50960923  0.96332408  0.68383317    -0.34000
N204        N  0.52505733  0.94943176  0.70028750    -0.28200
C205        C  0.52286714  0.95290864  0.73447968    -0.04300
C206        C  0.50500996  0.96956355  0.73980776     0.07900
C207        C  0.49694643  0.97574559  0.70719135     0.01700
H208        H  0.53305368  0.94349415  0.75401132     0.09400
H209        H  0.48299367  0.98843099  0.70086452     0.08400
N210        N  0.56324786  0.89900819  0.64570617    -0.35400
N211        N  0.56000315  0.89733191  0.61196440    -0.27600
C212        C  0.57095872  0.87753455  0.60046658    -0.02800
C213        C  0.58200295  0.86651088  0.62813767     0.05800
C214        C  0.57676917  0.88055279  0.65646788     0.03900
H215        H  0.57093648  0.87164520  0.57388261     0.09000
H216        H  0.58161509  0.87712760  0.68307243     0.07800
N217        N  0.48575586  0.01259975  0.45076447    -0.26600
N218        N  0.49928731  0.99736065  0.43353672    -0.34400
C219        C  0.50854269  0.98138964  0.45587337     0.01800
C220        C  0.50054175  0.98689128  0.48868615     0.07800
C221        C  0.48613472  0.00676103  0.48444520    -0.05300
H222        H  0.52052174  0.96706133  0.44878443     0.08500
H223        H  0.47684211  0.01649051  0.50441705     0.09700
Cu224      Cu  0.50556718  0.99948586  0.38058906     0.44200
Cu225      Cu  0.46816983  0.04145400  0.42836029     0.42000
Cu226      Cu  0.48146239  0.05175599  0.33846575     0.43900
N227        N  0.50961137  0.00637838  0.32802800    -0.34000
N228        N  0.50048313  0.02541019  0.31269974    -0.28200
C229        C  0.50570254  0.02463736  0.27886359    -0.04300
C230        C  0.51894240  0.00425445  0.27253740     0.07900
C231        C  0.52112235  0.99311320  0.30431145     0.01700
H232        H  0.50041946  0.03807086  0.26030632     0.09400
H233        H  0.53024770  0.97651091  0.30976276     0.08400
N234        N  0.46121641  0.07490052  0.36833980    -0.35400
N235        N  0.45530691  0.07059695  0.40073516    -0.27600
C236        C  0.44090277  0.08821267  0.41194571    -0.02800
C237        C  0.43800699  0.10456854  0.38555250     0.05800
C238        C  0.45114373  0.09557321  0.35830249     0.03900
H239        H  0.43337258  0.08920880  0.43756590     0.09000
H240        H  0.45275950  0.10315059  0.33276307     0.07800
N241        N  0.22464494  0.10686522  0.87704207    -0.26600
N242        N  0.21410394  0.12757081  0.87083685    -0.34400
C243        C  0.19036273  0.12393433  0.86686284     0.01800
C244        C  0.18570737  0.09990920  0.87130754     0.07800
C245        C  0.20784697  0.08961781  0.87777804    -0.05300
H246        H  0.17741640  0.13779734  0.86135120     0.08500
H247        H  0.21158790  0.07089438  0.88181132     0.09700
Cu248      Cu  0.23235531  0.15996584  0.86826994     0.44200
Cu249      Cu  0.26151349  0.10255561  0.88244017     0.42000
Cu250      Cu  0.29610094  0.15721032  0.88421211     0.43900
N251        N  0.25477873  0.18970416  0.86698537    -0.34000
N252        N  0.27811715  0.18864632  0.87306379    -0.28200
C253        C  0.28762905  0.21058835  0.86965641    -0.04300
C254        C  0.26941474  0.22623743  0.86095754     0.07900
C255        C  0.24882203  0.21239518  0.85954804     0.01700
H256        H  0.30645840  0.21475491  0.87292500     0.09400
H257        H  0.23083974  0.21833016  0.85341532     0.08400
N258        N  0.31103398  0.12357928  0.88978899    -0.35400
N259        N  0.29864651  0.10350521  0.88751718    -0.27600
C260        C  0.31390872  0.08495472  0.88966213    -0.02800
C261        C  0.33691695  0.09388592  0.89394854     0.05800
C262        C  0.33439122  0.11836921  0.89413028     0.03900
H263        H  0.30860772  0.06640029  0.88861097     0.09000
H264        H  0.34857890  0.13147463  0.89632435     0.07800
N265        N  0.23408073  0.37180299  0.85609243    -0.26600
N266        N  0.22441671  0.35284101  0.84123842    -0.34400
C267        C  0.20134069  0.35751473  0.83344252     0.01800
C268        C  0.19611629  0.38036857  0.84445539     0.07800
C269        C  0.21730989  0.38895205  0.85864115    -0.05300
H270        H  0.18903645  0.34489552  0.82177490     0.08500
H271        H  0.22038666  0.40638898  0.86978848     0.09700
Cu272      Cu  0.24248217  0.32073298  0.83632303     0.44200
Cu273      Cu  0.26989313  0.37337460  0.87105770     0.42000
Cu274      Cu  0.30590188  0.31992411  0.85865176     0.43900
N275        N  0.26204214  0.28974397  0.84408638    -0.34000
N276        N  0.28508510  0.28924236  0.85241997    -0.28200
C277        C  0.29147061  0.26648925  0.85883940    -0.04300
C278        C  0.27144120  0.25209142  0.85453574     0.07900
C279        C  0.25317437  0.26744479  0.84510002     0.01700
H280        H  0.30913568  0.26098139  0.86732448     0.09400
H281        H  0.23455893  0.26290300  0.84053883     0.08400
N282        N  0.32031225  0.35345683  0.86969910    -0.35400
N283        N  0.30698793  0.37242472  0.87627007    -0.27600
C284        C  0.32141247  0.39100982  0.88363063    -0.02800
C285        C  0.34493103  0.38360167  0.88091732     0.05800
C286        C  0.34363062  0.35967517  0.87204723     0.03900
H287        H  0.31521550  0.40887044  0.88920711     0.09000
H288        H  0.35849439  0.34765945  0.86779026     0.07800
N289        N  0.02946599  0.02116079  0.45348975    -0.26600
N290        N  0.01779778  0.00492167  0.43521070    -0.34400
C291        C  0.00950664  0.98792794  0.45661890     0.01800
C292        C  0.01633402  0.99381588  0.48994758     0.07800
C293        C  0.02893118  0.01498190  0.48696655    -0.05300
H294        H  0.99935019  0.97244436  0.44848514     0.08500
H295        H  0.03722447  0.02513386  0.50757116     0.09700
Cu296      Cu  0.01462209  0.00665206  0.38191379     0.44200
Cu297      Cu  0.04634784  0.05054319  0.43196489     0.42000
Cu298      Cu  0.05280033  0.05023953  0.33890405     0.43900
N299        N  0.01624511  0.01091074  0.32879728    -0.34000
N300        N  0.03084111  0.02588991  0.31291728    -0.28200
C301        C  0.02769604  0.02357279  0.27856551    -0.04300
C302        C  0.01010549  0.00655476  0.27270368     0.07900
C303        C  0.00324771  0.99897218  0.30509729     0.01700
H304        H  0.03706176  0.03394606  0.25934803     0.09400
H305        H  0.98987480  0.98562636  0.31106725     0.08400
N306        N  0.06809185  0.07600598  0.37111956    -0.35400
N307        N  0.06454221  0.07673598  0.40481596    -0.27600
C308        C  0.07465025  0.09666080  0.41773333    -0.02800
C309        C  0.08542920  0.10889369  0.39106451     0.05800
C310        C  0.08097124  0.09528309  0.36184326     0.03900
H311        H  0.07418122  0.10185442  0.44460495     0.09000
H312        H  0.08586040  0.09955909  0.33559940     0.07800
N313        N  0.99654905  0.95514903  0.56004454    -0.26600
N314        N  0.00787801  0.97209182  0.57743408    -0.34400
C315        C  0.01706439  0.98793461  0.55513930     0.01800
C316        C  0.01115811  0.98078701  0.52205148     0.07800
C317        C  0.99819340  0.95987474  0.52604726    -0.05300
H318        H  0.02665197  0.00392124  0.56261961     0.08500
H319        H  0.98998632  0.94925945  0.50586286     0.09700
Cu320      Cu  0.00854626  0.97465884  0.63067447     0.44200
Cu321      Cu  0.97788641  0.92760961  0.58402776     0.42000
Cu322      Cu  0.96794659  0.93659473  0.67638925     0.43900
N323        N  0.00466153  0.97574062  0.68369826    -0.34000
N324        N  0.98930487  0.96217857  0.70060743    -0.28200
C325        C  0.99163804  0.96654238  0.73462548    -0.04300
C326        C  0.00937966  0.98360609  0.73925228     0.07900
C327        C  0.01718826  0.98905174  0.70639348     0.01700
H328        H  0.98175251  0.95735525  0.75454468     0.09400
H329        H  0.03132896  0.00134748  0.69947756     0.08400
N330        N  0.95353050  0.90848087  0.64786077    -0.35400
N331        N  0.95825259  0.90440952  0.61495284    -0.27600
C332        C  0.94793940  0.88365021  0.60547682    -0.02800
C333        C  0.93596090  0.87439505  0.63367896     0.05800
C334        C  0.93972868  0.89067737  0.65992966     0.03900
H335        H  0.94883148  0.87606297  0.57985424     0.09000
H336        H  0.93344828  0.88934226  0.68621471     0.07800
N337        N  0.98472234  0.96683763  0.06146835    -0.26600
N338        N  0.00161044  0.97874770  0.07835410    -0.34400
C339        C  0.01804666  0.98651444  0.05566802     0.01800
C340        C  0.01104920  0.97937834  0.02294484     0.07800
C341        C  0.98987169  0.96693235  0.02758988    -0.05300
H342        H  0.03350391  0.99726660  0.06240738     0.08500
H343        H  0.97873604  0.95894053  0.00775893     0.09700
Cu344      Cu  0.00083654  0.98563910  0.13110894     0.44200
Cu345      Cu  0.95462685  0.95206795  0.08465163     0.42000
Cu346      Cu  0.94819471  0.96463323  0.17555651     0.43900
N347        N  0.99560350  0.99010667  0.18383702    -0.34000
N348        N  0.97657712  0.98176038  0.20009881    -0.28200
C349        C  0.97887742  0.98633882  0.23401175    -0.04300
C350        C  0.00023239  0.99840251  0.23936446     0.07900
C351        C  0.01035706  0.00058681  0.20698653     0.01700
H352        H  0.96587566  0.98133710  0.25331847     0.09400
H353        H  0.02740606  0.00871247  0.20079925     0.08400
N354        N  0.92235382  0.94707873  0.14628926    -0.35400
N355        N  0.92509805  0.94151056  0.11339615    -0.27600
C356        C  0.90569186  0.92924019  0.10252545    -0.02800
C357        C  0.88990290  0.92729307  0.12984775     0.05800
C358        C  0.90096693  0.93892295  0.15704251     0.03900
H359        H  0.90309565  0.92264611  0.07653711     0.09000
H360        H  0.89417025  0.94092564  0.18296706     0.07800
N361        N  0.04799746  0.99962237  0.95139327    -0.26600
N362        N  0.02910567  0.99138796  0.93440428    -0.34400
C363        C  0.01332896  0.98241521  0.95712126     0.01800
C364        C  0.02269122  0.98531424  0.99001172     0.07800
C365        C  0.04468850  0.99629192  0.98541000    -0.05300
H366        H  0.99606787  0.97491275  0.95022641     0.08500
H367        H  0.05721241  0.00180109  0.00530407     0.09700
Cu368      Cu  0.02547588  0.99384343  0.88121324     0.44200
Cu369      Cu  0.07672140  0.01604499  0.92727225     0.42000
Cu370      Cu  0.07088918  0.02811087  0.83533022     0.43900
N371        N  0.02639049  0.99746845  0.82796011    -0.34000
N372        N  0.04273601  0.00994976  0.81114485    -0.28200
C373        C  0.03884111  0.00743874  0.77700363    -0.04300
C374        C  0.01917002  0.99264976  0.77218575     0.07900
C375        C  0.01172934  0.98672963  0.80503766     0.01700
H376        H  0.04998860  0.01518143  0.75718607     0.09400
H377        H  0.99713620  0.97494085  0.81185328     0.08400
N378        N  0.09920199  0.04054757  0.86589321    -0.35400
N379        N  0.10181581  0.03485236  0.89882303    -0.27600
C380        C  0.12267406  0.04382323  0.91063263    -0.02800
C381        C  0.13353418  0.05617466  0.88420061     0.05800
C382        C  0.11819234  0.05378811  0.85613067     0.03900
H383        H  0.12934281  0.04168529  0.93671595     0.09000
H384        H  0.12100988  0.06045522  0.83028653     0.07800
N385        N  0.63498892  0.77809094  0.64371726    -0.26600
N386        N  0.65538856  0.78929298  0.65034432    -0.34400
C387        C  0.65103798  0.81283422  0.65295195     0.01800
C388        C  0.62686285  0.81658110  0.64698547     0.07800
C389        C  0.61722486  0.79419157  0.64119868    -0.05300
H390        H  0.66453288  0.82624783  0.65824399     0.08500
H391        H  0.59859219  0.78983477  0.63636744     0.09700
Cu392      Cu  0.68824928  0.77199697  0.65368367     0.44200
Cu393      Cu  0.63183193  0.74138395  0.64025417     0.42000
Cu394      Cu  0.68693895  0.70777007  0.64013613     0.43900
N395        N  0.71867334  0.75066616  0.65219676    -0.34000
N396        N  0.71817614  0.72730619  0.64745616    -0.28200
C397        C  0.74078776  0.71894594  0.64767441    -0.04300
C398        C  0.75624571  0.73797510  0.65250655     0.07900
C399        C  0.74163695  0.75780440  0.65521694     0.01700
H400        H  0.74559342  0.70043744  0.64398027     0.09400
H401        H  0.74725190  0.77610621  0.65891163     0.08400
N402        N  0.65323230  0.69221518  0.63701630    -0.35400
N403        N  0.63304765  0.70450638  0.63862976    -0.27600
C404        C  0.61441086  0.68926279  0.63914859    -0.02800
C405        C  0.62328743  0.66633273  0.63707940     0.05800
C406        C  0.64796567  0.66881713  0.63572146     0.03900
H407        H  0.59578448  0.69450133  0.64090257     0.09000
H408        H  0.66114892  0.65467894  0.63518768     0.07800
N409        N  0.90216171  0.69818335  0.62522560    -0.26600
N410        N  0.88318075  0.68709998  0.63786183    -0.34400
C411        C  0.88826176  0.66377407  0.64148010     0.01800
C412        C  0.91135346  0.65989192  0.63001061     0.07800
C413        C  0.91966569  0.68208744  0.61989498    -0.05300
H414        H  0.87593500  0.65055513  0.65136191     0.08500
H415        H  0.93734540  0.68635976  0.61031966     0.09700
Cu416      Cu  0.85081585  0.70391157  0.64813017     0.44200
Cu417      Cu  0.90411392  0.73499184  0.61835539     0.42000
Cu418      Cu  0.85166474  0.76834401  0.64359266     0.43900
N419        N  0.82025706  0.72490705  0.65161633    -0.34000
N420        N  0.82066792  0.74846958  0.65037051    -0.28200
C421        C  0.79803999  0.75671146  0.65142834    -0.04300
C422        C  0.78263770  0.73741389  0.65315576     0.07900
C423        C  0.79731084  0.71752372  0.65325738     0.01700
H424        H  0.79316187  0.77534300  0.64972699     0.09400
H425        H  0.79173605  0.69904061  0.65363465     0.08400
N426        N  0.88408712  0.78418263  0.63104640    -0.35400
N427        N  0.90299977  0.77211948  0.62031417    -0.27600
C428        C  0.92078382  0.78761633  0.61324290    -0.02800
C429        C  0.91278195  0.81044136  0.62036101     0.05800
C430        C  0.88941159  0.80758853  0.63154319     0.03900
H431        H  0.93843882  0.78259379  0.60438559     0.09000
H432        H  0.87706223  0.82148117  0.63911831     0.07800
N433        N  0.04659453  0.46168804  0.42791632    -0.26600
N434        N  0.03653798  0.47952287  0.41086253    -0.34400
C435        C  0.02797228  0.49550985  0.43349676     0.01800
C436        C  0.03285851  0.48740776  0.46643973     0.07800
C437        C  0.04469979  0.46592665  0.46198864    -0.05300
H438        H  0.01877477  0.51177757  0.42640594     0.08500
H439        H  0.05137129  0.45419175  0.48199080     0.09700
Cu440      Cu  0.03437339  0.48142402  0.35768599     0.44200
Cu441      Cu  0.06250118  0.43251134  0.40383565     0.42000
Cu442      Cu  0.06642159  0.43647568  0.31028041     0.43900
N443        N  0.03337207  0.47889338  0.30450741    -0.34000
N444        N  0.04552315  0.46276945  0.28691393    -0.28200
C445        C  0.04052986  0.46544305  0.25312079    -0.04300
C446        C  0.02431463  0.48398940  0.24942155     0.07900
C447        C  0.02019448  0.49210562  0.28251640     0.01700
H448        H  0.04762772  0.45425234  0.23286858     0.09400
H449        H  0.00831846  0.50638570  0.29014857     0.08400
N450        N  0.08164950  0.40909113  0.33938834    -0.35400
N451        N  0.07913885  0.40692635  0.37317003    -0.27600
C452        C  0.08968738  0.38650767  0.38352605    -0.02800
C453        C  0.09952935  0.37546364  0.35493258     0.05800
C454        C  0.09424461  0.39036453  0.32752267     0.03900
H455        H  0.09060000  0.38046080  0.40999470     0.09000
H456        H  0.09886832  0.38758255  0.30075378     0.07800
N457        N  0.01143978  0.52426347  0.53736330    -0.26600
N458        N  0.02206961  0.50687777  0.55468471    -0.34400
C459        C  0.03144045  0.49121306  0.53219660     0.01800
C460        C  0.02647136  0.49909689  0.49914214     0.07800
C461        C  0.01378324  0.52009602  0.50336189    -0.05300
H462        H  0.04097799  0.47517326  0.53944283     0.08500
H463        H  0.00655595  0.53140865  0.48324415     0.09700
Cu464      Cu  0.02283825  0.50467798  0.60807127     0.44200
Cu465      Cu  0.99358183  0.55251919  0.56064599     0.42000
Cu466      Cu  0.98718949  0.54828246  0.65339331     0.43900
N467        N  0.01987807  0.50573557  0.66134780    -0.34000
N468        N  0.00645758  0.52138480  0.67790774    -0.28200
C469        C  0.00849852  0.51748890  0.71204883    -0.04300
C470        C  0.02402849  0.49855956  0.71719352     0.07900
C471        C  0.03090340  0.49154926  0.68449481     0.01700
H472        H  0.99976618  0.52804439  0.73166859     0.09400
H473        H  0.04318936  0.47734959  0.67796542     0.08400
N474        N  0.97225656  0.57548286  0.62385603    -0.35400
N475        N  0.97540356  0.57757129  0.59019906    -0.27600
C476        C  0.96487894  0.59783295  0.57929216    -0.02800
C477        C  0.95429499  0.60880835  0.60728562     0.05800
C478        C  0.95932709  0.59415471  0.63514035     0.03900
H479        H  0.96483231  0.60405821  0.55287913     0.09000
H480        H  0.95459061  0.59717896  0.66180562     0.07800
N481        N  0.99563367  0.51830836  0.03858208    -0.26600
N482        N  0.01019029  0.50403928  0.05593230    -0.34400
C483        C  0.02500803  0.49307741  0.03377041     0.01800
C484        C  0.01939349  0.50063094  0.00077504     0.07800
C485        C  0.00066335  0.51660509  0.00473280    -0.05300
H486        H  0.03860994  0.48028503  0.04115080     0.08500
H487        H  0.99134570  0.52623695  0.98454408     0.09700
Cu488      Cu  0.00885721  0.49966502  0.10880494     0.44200
Cu489      Cu  0.96938694  0.53887400  0.06232537     0.42000
Cu490      Cu  0.96340833  0.53211827  0.15581703     0.43900
N491        N  0.00596890  0.49909263  0.16190183    -0.34000
N492        N  0.98994854  0.51144212  0.17946934    -0.28200
C493        C  0.99397957  0.50806399  0.21343292    -0.04300
C494        C  0.01329658  0.49270507  0.21719105     0.07900
C495        C  0.02035507  0.48734381  0.18401343     0.01700
H496        H  0.98357978  0.51611364  0.23382501     0.09400
H497        H  0.03516356  0.47608809  0.17642142     0.08400
N498        N  0.93965009  0.55157974  0.12493579    -0.35400
N499        N  0.94262237  0.55497995  0.09143456    -0.27600
C500        C  0.92479023  0.56892493  0.07945037    -0.02800
C501        C  0.90957004  0.57413791  0.10640990     0.05800
C502        C  0.91949080  0.56284379  0.13489387     0.03900
H503        H  0.92264148  0.57424924  0.05278872     0.09000
H504        H  0.91271096  0.56300985  0.16098351     0.07800
N505        N  0.05535451  0.47613861  0.93095202    -0.26600
N506        N  0.03809332  0.48670281  0.91311968    -0.34400
C507        C  0.02277575  0.49717262  0.93512507     0.01800
C508        C  0.03068931  0.49286327  0.96841235     0.07800
C509        C  0.05135373  0.47943698  0.96482391    -0.05300
H510        H  0.00693368  0.50698690  0.92741859     0.08500
H511        H  0.06272812  0.47265873  0.98528198     0.09700
Cu512      Cu  0.03597681  0.48609981  0.85969094     0.44200
Cu513      Cu  0.08365296  0.45794275  0.90822145     0.42000
Cu514      Cu  0.08033552  0.45028048  0.81528112     0.43900
N515        N  0.03791932  0.48322872  0.80642662    -0.34000
N516        N  0.05379328  0.46986321  0.79017004    -0.28200
C517        C  0.05088056  0.47275803  0.75592737    -0.04300
C518        C  0.03240052  0.48881100  0.75043438     0.07900
C519        C  0.02457947  0.49503808  0.78300428     0.01700
H520        H  0.06199143  0.46446624  0.73654149     0.09400
H521        H  0.01060469  0.50765361  0.78929943     0.08400
N522        N  0.10782469  0.43652277  0.84584773    -0.35400
N523        N  0.10950546  0.44023535  0.87948114    -0.27600
C524        C  0.13023786  0.43088342  0.89113495    -0.02800
C525        C  0.14200895  0.42048358  0.86370621     0.05800
C526        C  0.12728735  0.42436215  0.83534324     0.03900
H527        H  0.13632074  0.43163019  0.91767124     0.09000
H528        H  0.13083064  0.41949373  0.80885498     0.07800
N529        N  0.13433751  0.27437576  0.37683171    -0.26600
N530        N  0.15289961  0.28618515  0.36421480    -0.34400
C531        C  0.14712505  0.30940539  0.36128695     0.01800
C532        C  0.12390518  0.31246575  0.37293769     0.07800
C533        C  0.11642891  0.28994147  0.38281390    -0.05300
H534        H  0.15915378  0.32310813  0.35203885     0.08500
H535        H  0.09904672  0.28513965  0.39296552     0.09700
Cu536      Cu  0.18590022  0.27078729  0.35325725     0.44200
Cu537      Cu  0.13341939  0.23729966  0.38300902     0.42000
Cu538      Cu  0.18715151  0.20684956  0.35610467     0.43900
N539        N  0.21729598  0.25102839  0.34944674    -0.34000
N540        N  0.21761163  0.22748414  0.35081117    -0.28200
C541        C  0.24046185  0.21988299  0.35037999    -0.04300
C542        C  0.25528625  0.23959304  0.34858943     0.07900
C543        C  0.24002738  0.25906839  0.34793917     0.01700
H544        H  0.24584802  0.20139196  0.35209399     0.09400
H545        H  0.24506235  0.27770345  0.34757151     0.08400
N546        N  0.15542541  0.18943886  0.36704243    -0.35400
N547        N  0.13599545  0.20018577  0.37873641    -0.27600
C548        C  0.11879090  0.18361849  0.38368869    -0.02800
C549        C  0.12787884  0.16154822  0.37418706     0.05800
C550        C  0.15104720  0.16598374  0.36364962     0.03900
H551        H  0.10071088  0.18749951  0.39196614     0.09000
H552        H  0.16377865  0.15311416  0.35392430     0.07800
N553        N  0.40284618  0.27965729  0.35791210    -0.26600
N554        N  0.38230832  0.29052968  0.35127146    -0.34400
C555        C  0.38609228  0.31418613  0.34979499     0.01800
C556        C  0.41006341  0.31843637  0.35647559     0.07800
C557        C  0.42021448  0.29617186  0.36151275    -0.05300
H558        H  0.37229918  0.32734427  0.34495403     0.08500
H559        H  0.43886588  0.29222005  0.36682113     0.09700
Cu560      Cu  0.34987179  0.27284730  0.34712573     0.44200
Cu561      Cu  0.40611530  0.24283974  0.36096732     0.42000
Cu562      Cu  0.35077247  0.20877571  0.36215513     0.43900
N563        N  0.31940485  0.25185517  0.34905826    -0.34000
N564        N  0.31960464  0.22856727  0.35447258    -0.28200
C565        C  0.29683751  0.22056594  0.35466734    -0.04300
C566        C  0.28167357  0.23977281  0.34934948     0.07900
C567        C  0.29658092  0.25930757  0.34594761     0.01700
H568        H  0.29172443  0.20218508  0.35887025     0.09400
H569        H  0.29127981  0.27763731  0.34176802     0.08400
N570        N  0.38467933  0.19345886  0.36631172    -0.35400
N571        N  0.40479434  0.20589768  0.36416143    -0.27600
C572        C  0.42354190  0.19082623  0.36472748    -0.02800
C573        C  0.41489843  0.16786671  0.36815752     0.05800
C574        C  0.39016894  0.17013861  0.36910981     0.03900
H575        H  0.44213006  0.19620778  0.36281355     0.09000
H576        H  0.37712484  0.15586731  0.37034649     0.07800
C577        C  0.11000137  0.33488803  0.37524597    -0.15700
C578        C  0.11357642  0.35312332  0.35335134    -0.30900
H579        H  0.09577715  0.33595525  0.39421111     0.13300
H580        H  0.12632450  0.35117718  0.33245567     0.13900
C581        C  0.92432951  0.63693781  0.63023293    -0.15700
C582        C  0.94148278  0.63186538  0.60717996    -0.30900
H583        H  0.91883095  0.62349179  0.64874297     0.13300
H584        H  0.94550452  0.64449251  0.58676822     0.13900
C585        C  0.92181941  0.85215948  0.63608189    -0.15700
C586        C  0.92655940  0.83285119  0.61673532    -0.30900
H587        H  0.90805768  0.85123029  0.65575454     0.13300
H588        H  0.94167613  0.83304394  0.59918742     0.13900
C589        C  0.09760750  0.13227289  0.39349909    -0.15700
C590        C  0.11539600  0.13833888  0.37205238    -0.30900
H591        H  0.09259484  0.14425082  0.41427115     0.13300
H592        H  0.12181232  0.12545507  0.35331693     0.13900
C593        C  0.17259536  0.39240060  0.84203654    -0.15700
C594        C  0.16584242  0.40900860  0.86498465    -0.30900
H595        H  0.16005986  0.38644046  0.82227262     0.13300
H596        H  0.17762486  0.41345726  0.88646753     0.13900
C597        C  0.16213035  0.08796446  0.86838809    -0.15700
C598        C  0.15719216  0.06795994  0.88597898    -0.30900
H599        H  0.14821777  0.09640835  0.85293290     0.13300
H600        H  0.17037436  0.06079706  0.90392523     0.13900
C601        C  0.42327805  0.12645324  0.38618876    -0.15700
C602        C  0.42932847  0.14582427  0.36783634    -0.30900
H603        H  0.40784825  0.12702718  0.40315561     0.13300
H604        H  0.44600792  0.14597609  0.35348255     0.13900
C605        C  0.59501996  0.84368758  0.62741693    -0.15700
C606        C  0.61407314  0.83955838  0.64784408    -0.30900
H607        H  0.58952136  0.83043470  0.60849274     0.13300
H608        H  0.62101949  0.85363428  0.66439621     0.13900
C609        C  0.35965541  0.08066686  0.89747690    -0.15700
C610        C  0.36325864  0.05974317  0.88155782    -0.30900
H611        H  0.37435118  0.08919966  0.91129271     0.13300
H612        H  0.34936538  0.05234791  0.86492648     0.13900
C613        C  0.86123261  0.89630711  0.11122367    -0.15700
C614        C  0.86619843  0.91555064  0.13059518    -0.30900
H615        H  0.87505517  0.88868089  0.09496225     0.13300
H616        H  0.85319700  0.92178667  0.14930810     0.13900
C617        C  0.66389398  0.89250792  0.14425501    -0.15700
C618        C  0.65880849  0.91174595  0.12494316    -0.30900
H619        H  0.65013608  0.88474534  0.16050804     0.13300
H620        H  0.67182868  0.91804746  0.10628954     0.13900
C621        C  0.86771761  0.58278805  0.12231540    -0.15700
C622        C  0.88742004  0.58856409  0.10439665    -0.30900
H623        H  0.86771791  0.56680310  0.13814380     0.13300
H624        H  0.88668784  0.60306034  0.08583944     0.13900
C625        C  0.61640546  0.62430531  0.62196477    -0.15700
C626        C  0.60923547  0.64409674  0.63834775    -0.30900
H627        H  0.63231936  0.62473317  0.60593171     0.13300
H628        H  0.59213396  0.64431777  0.65164600     0.13900
C629        C  0.44113041  0.34628175  0.37716054    -0.15700
C630        C  0.42194842  0.34190604  0.35708186    -0.30900
H631        H  0.44773256  0.33262543  0.39465934     0.13300
H632        H  0.41403929  0.35620129  0.34193124     0.13900
C633        C  0.38625991  0.39552821  0.86661167    -0.15700
C634        C  0.36642676  0.39873305  0.88551279    -0.30900
H635        H  0.38657483  0.38165256  0.84704663     0.13300
H636        H  0.36519540  0.41396272  0.90273981     0.13900
C637        C  0.65134956  0.58388951  0.13156888    -0.15700
C638        C  0.67109792  0.57841194  0.11359830    -0.30900
H639        H  0.65178289  0.59866399  0.14970596     0.13300
H640        H  0.67144313  0.56225180  0.09813285     0.13900
loop_ 
_geom_bond_atom_site_label_1 
_geom_bond_atom_site_label_2 
_geom_bond_distance 
_geom_bond_site_symmetry_2 
_ccdc_geom_bond_type 
N1            N2   1.324       .  A
N1            C5   1.346       .  A
N1           Cu9   2.086       .  S
N2            C3   1.347       .  A
N2           Cu8   2.080       .  S
C3            C4   1.384       .  A
C3            H6   1.082       .  S
C4            C5   1.385       .  A
C4           C28   1.476   1_554  S
C5            H7   1.082       .  S
Cu8          N11   2.080       .  S
Cu9          N19   2.085       .  S
Cu10         N12   2.074       .  S
Cu10         N18   2.074       .  S
N11          N12   1.322       .  A
N11          C15   1.347       .  A
N12          C13   1.344       .  A
C13          C14   1.383       .  A
C13          H16   1.082       .  S
C14          C15   1.385       .  A
C14          C62   1.473       .  S
C15          H17   1.082       .  S
N18          N19   1.322       .  A
N18          C22   1.345       .  A
N19          C20   1.348       .  A
C20          C21   1.386       .  A
C20          H23   1.082       .  S
C21          C22   1.381       .  A
C21         C637   1.477       .  S
C22          H24   1.082       .  S
N25          N26   1.323       .  A
N25          C29   1.347       .  A
N25         Cu33   2.086       .  S
N26          C27   1.345       .  A
N26         Cu32   2.075       .  S
C27          C28   1.383       .  A
C27          H30   1.082       .  S
C28          C29   1.386       .  A
C29          H31   1.082       .  S
Cu32         N35   2.075       .  S
Cu33         N43   2.086       .  S
Cu34         N36   2.074       .  S
Cu34         N42   2.075       .  S
N35          N36   1.322       .  A
N35          C39   1.345       .  A
N36          C37   1.345       .  A
C37          C38   1.383       .  A
C37          H40   1.082       .  S
C38          C39   1.383       .  A
C38          C86   1.471       .  S
C39          H41   1.082       .  S
N42          N43   1.323       .  A
N42          C46   1.345       .  A
N43          C44   1.348       .  A
C44          C45   1.386       .  A
C44          H47   1.082       .  S
C45          C46   1.381       .  A
C45         C633   1.478       .  S
C46          H48   1.082       .  S
N49          N50   1.322       .  A
N49          C53   1.345       .  A
N49         Cu57   2.073       .  S
N50          C51   1.345       .  A
N50         Cu56   2.071       .  S
C51          C52   1.383       .  A
C51          H54   1.082       .  S
C52          C53   1.383       .  A
C52          C76   1.470       .  S
C53          H55   1.082       .  S
Cu56         N59   2.072       .  S
Cu57         N67   2.073       .  S
Cu58         N60   2.078       .  S
Cu58         N66   2.078       .  S
N59          N60   1.322       .  A
N59          C63   1.344       .  A
N60          C61   1.347       .  A
C61          C62   1.385       .  A
C61          H64   1.082       .  S
C62          C63   1.383       .  A
C63          H65   1.082       .  S
N66          N67   1.323       .  A
N66          C70   1.345       .  A
N67          C68   1.345       .  A
C68          C69   1.381       .  A
C68          H71   1.082       .  S
C69          C70   1.384       .  A
C69         C629   1.474       .  S
C70          H72   1.082       .  S
N73          N74   1.322       .  A
N73          C77   1.345       .  A
N73         Cu81   2.074       .  S
N74          C75   1.344       .  A
N74         Cu80   2.071       .  S
C75          C76   1.382       .  A
C75          H78   1.082       .  S
C76          C77   1.383       .  A
C77          H79   1.082       .  S
Cu80         N83   2.071       .  S
Cu81         N91   2.073       .  S
Cu82         N84   2.076       .  S
Cu82         N90   2.076       .  S
N83          N84   1.322       .  A
N83          C87   1.345       .  A
N84          C85   1.346       .  A
C85          C86   1.384       .  A
C85          H88   1.082       .  S
C86          C87   1.382       .  A
C87          H89   1.082       .  S
N90          N91   1.323       .  A
N90          C94   1.345       .  A
N91          C92   1.345       .  A
C92          C93   1.380       .  A
C92          H95   1.082       .  S
C93          C94   1.384       .  A
C93         C625   1.472       .  S
C94          H96   1.082       .  S
N97          N98   1.323       .  A
N97         C101   1.345       .  A
N97        Cu105   2.078       .  S
N98          C99   1.349       .  A
N98        Cu104   2.086       .  S
C99         C100   1.386       .  A
C99         H102   1.082       .  S
C100        C101   1.381       .  A
C100        C621   1.478       .  S
C101        H103   1.082       .  S
Cu104       N107   2.086       .  S
Cu105       N115   2.077       .  S
Cu106       N108   2.082       .  S
Cu106       N114   2.081       .  S
N107        N108   1.324       .  A
N107        C111   1.347       .  A
N108        C109   1.346       .  A
C109        C110   1.383       .  A
C109        H112   1.082       .  S
C110        C111   1.385       .  A
C110        C134   1.475       .  S
C111        H113   1.082       .  S
N114        N115   1.322       .  A
N114        C118   1.347       .  A
N115        C116   1.346       .  A
C116        C117   1.382       .  A
C116        H119   1.082       .  S
C117        C118   1.386       .  A
C117        C638   1.478       .  S
C118        H120   1.082       .  S
N121        N122   1.323       .  A
N121        C125   1.347       .  A
N121       Cu129   2.082       .  S
N122        C123   1.345       .  A
N122       Cu128   2.074       .  S
C123        C124   1.381       .  A
C123        H126   1.082       .  S
C124        C125   1.386       .  A
C124        C613   1.476       .  S
C125        H127   1.082       .  S
Cu128       N131   2.075       .  S
Cu129       N139   2.082       .  S
Cu130       N132   2.084       .  S
Cu130       N138   2.084       .  S
N131        N132   1.323       .  A
N131        C135   1.346       .  A
N132        C133   1.347       .  A
C133        C134   1.385       .  A
C133        H136   1.082       .  S
C134        C135   1.383       .  A
C135        H137   1.082       .  S
N138        N139   1.323       .  A
N138        C142   1.347       .  A
N139        C140   1.347       .  A
C140        C141   1.385       .  A
C140        H143   1.082       .  S
C141        C142   1.383       .  A
C141        C617   1.479       .  S
C142        H144   1.082       .  S
N145        N146   1.323       .  A
N145        C149   1.347       .  A
N145       Cu153   2.084       .  S
N146        C147   1.346   1_545  A
N146       Cu152   2.084   1_545  S
C147        C148   1.385   1_565  A
C147        H150   1.082       .  S
C148        C149   1.385       .  A
C148        C172   1.477   1_546  S
C149        H151   1.082   1_556  S
Cu152       N155   2.083       .  S
Cu153       N163   2.084       .  S
Cu154       N156   2.069   1_545  S
Cu154       N162   2.068       .  S
N155        N156   1.322       .  A
N155        C159   1.347       .  A
N156        C157   1.345       .  A
C157        C158   1.381       .  A
C157        H160   1.082       .  S
C158        C159   1.385       .  A
C158        C206   1.472       .  S
C159        H161   1.082       .  S
N162        N163   1.322       .  A
N162        C166   1.344       .  A
N163        C164   1.347       .  A
C164        C165   1.386       .  A
C164        H167   1.082       .  S
C165        C166   1.380       .  A
C165        C610   1.475       .  S
C166        H168   1.082       .  S
N169        N170   1.322       .  A
N169        C173   1.346       .  A
N169       Cu177   2.077       .  S
N170        C171   1.348   1_565  A
N170       Cu176   2.085       .  S
C171        C172   1.386   1_545  A
C171        H174   1.082       .  S
C172        C173   1.384       .  A
C173        H175   1.082       .  S
Cu176       N179   2.085       .  S
Cu177       N187   2.077       .  S
Cu178       N180   2.088       .  S
Cu178       N186   2.088       .  S
N179        N180   1.324       .  A
N179        C183   1.347   1_565  A
N180        C181   1.348       .  A
C181        C182   1.385       .  A
C181        H184   1.082       .  S
C182        C183   1.385   1_565  A
C182        C230   1.478   1_565  S
C183        H185   1.082       .  S
N186        N187   1.323       .  A
N186        C190   1.349       .  A
N187        C188   1.345       .  A
C188        C189   1.381       .  A
C188        H191   1.082       .  S
C189        C190   1.387       .  A
C189        C618   1.478       .  S
C190        H192   1.082       .  S
N193        N194   1.322       .  A
N193        C197   1.346       .  A
N193       Cu201   2.075       .  S
N194        C195   1.347       .  A
N194       Cu200   2.083       .  S
C195        C196   1.386       .  A
C195        H198   1.082       .  S
C196        C197   1.384       .  A
C196        C220   1.476       .  S
C197        H199   1.082       .  S
Cu200       N203   2.083       .  S
Cu201       N211   2.075       .  S
Cu202       N204   2.075       .  S
Cu202       N210   2.075       .  S
N203        N204   1.323       .  A
N203        C207   1.346       .  A
N204        C205   1.346       .  A
C205        C206   1.382       .  A
C205        H208   1.082       .  S
C206        C207   1.384       .  A
C207        H209   1.082       .  S
N210        N211   1.323       .  A
N210        C214   1.346       .  A
N211        C212   1.345       .  A
C212        C213   1.380       .  A
C212        H215   1.082       .  S
C213        C214   1.384       .  A
C213        C605   1.472       .  S
C214        H216   1.082       .  S
N217        N218   1.324   1_545  A
N217        C221   1.346       .  A
N217       Cu225   2.081       .  S
N218        C219   1.347       .  A
N218       Cu224   2.088       .  S
C219        C220   1.385       .  A
C219        H222   1.082       .  S
C220        C221   1.384   1_565  A
C221        H223   1.082       .  S
Cu224       N227   2.088   1_565  S
Cu225       N235   2.080       .  S
Cu226       N228   2.078       .  S
Cu226       N234   2.078       .  S
N227        N228   1.323       .  A
N227        C231   1.348   1_545  A
N228        C229   1.346       .  A
C229        C230   1.384       .  A
C229        H232   1.082       .  S
C230        C231   1.386   1_545  A
C231        H233   1.082       .  S
N234        N235   1.323       .  A
N234        C238   1.345       .  A
N235        C236   1.347       .  A
C236        C237   1.383       .  A
C236        H239   1.082       .  S
C237        C238   1.384       .  A
C237        C601   1.478       .  S
C238        H240   1.082       .  S
N241        N242   1.323       .  A
N241        C245   1.346       .  A
N241       Cu249   2.079       .  S
N242        C243   1.347       .  A
N242       Cu248   2.084       .  S
C243        C244   1.383       .  A
C243        H246   1.082       .  S
C244        C245   1.385       .  A
C244        C597   1.478       .  S
C245        H247   1.082       .  S
Cu248       N251   2.084       .  S
Cu249       N259   2.079       .  S
Cu250       N252   2.073       .  S
Cu250       N258   2.073       .  S
N251        N252   1.322       .  A
N251        C255   1.346       .  A
N252        C253   1.346       .  A
C253        C254   1.383       .  A
C253        H256   1.082       .  S
C254        C255   1.386       .  A
C254        C278   1.475       .  S
C255        H257   1.082       .  S
N258        N259   1.323       .  A
N258        C262   1.344       .  A
N259        C260   1.347       .  A
C260        C261   1.385       .  A
C260        H263   1.082       .  S
C261        C262   1.380       .  A
C261        C609   1.475       .  S
C262        H264   1.082       .  S
N265        N266   1.322       .  A
N265        C269   1.346       .  A
N265       Cu273   2.077       .  S
N266        C267   1.346       .  A
N266       Cu272   2.073       .  S
C267        C268   1.382       .  A
C267        H270   1.082       .  S
C268        C269   1.386       .  A
C268        C593   1.478       .  S
C269        H271   1.082       .  S
Cu272       N275   2.074       .  S
Cu273       N283   2.077       .  S
Cu274       N276   2.087       .  S
Cu274       N282   2.087       .  S
N275        N276   1.323       .  A
N275        C279   1.345       .  A
N276        C277   1.348       .  A
C277        C278   1.386       .  A
C277        H280   1.082       .  S
C278        C279   1.382       .  A
C279        H281   1.082       .  S
N282        N283   1.324       .  A
N282        C286   1.348       .  A
N283        C284   1.345       .  A
C284        C285   1.380       .  A
C284        H287   1.082       .  S
C285        C286   1.387       .  A
C285        C634   1.477       .  S
C286        H288   1.082       .  S
N289        N290   1.322       .  A
N289        C293   1.344       .  A
N289       Cu297   2.075       .  S
N290        C291   1.347   1_545  A
N290       Cu296   2.075       .  S
C291        C292   1.384       .  A
C291        H294   1.082   1_455  S
C292        C293   1.384   1_565  A
C292        C316   1.473       .  S
C293        H295   1.082       .  S
Cu296       N299   2.076       .  S
Cu297       N307   2.075       .  S
Cu298       N300   2.087       .  S
Cu298       N306   2.087       .  S
N299        N300   1.323       .  A
N299        C303   1.344   1_545  A
N300        C301   1.348       .  A
C301        C302   1.385       .  A
C301        H304   1.082       .  S
C302        C303   1.382   1_545  A
C302        C350   1.474   1_545  S
C303        H305   1.082   1_455  S
N306        N307   1.323       .  A
N306        C310   1.347       .  A
N307        C308   1.346       .  A
C308        C309   1.381       .  A
C308        H311   1.082       .  S
C309        C310   1.387       .  A
C309        C589   1.478       .  S
C310        H312   1.082       .  S
N313        N314   1.322   1_655  A
N313        C317   1.348       .  A
N313       Cu321   2.084       .  S
N314        C315   1.343       .  A
N314       Cu320   2.069       .  S
C315        C316   1.381       .  A
C315        H318   1.082   1_565  S
C316        C317   1.386   1_455  A
C317        H319   1.082       .  S
Cu320       N323   2.069       .  S
Cu321       N331   2.084       .  S
Cu322       N324   2.083       .  S
Cu322       N330   2.083       .  S
N323        N324   1.322   1_455  A
N323        C327   1.345       .  A
N324        C325   1.347       .  A
C325        C326   1.386   1_655  A
C325        H328   1.082       .  S
C326        C327   1.383       .  A
C326        C374   1.475       .  S
C327        H329   1.082   1_565  S
N330        N331   1.324       .  A
N330        C334   1.346       .  A
N331        C332   1.348       .  A
C332        C333   1.385       .  A
C332        H335   1.082       .  S
C333        C334   1.382       .  A
C333        C585   1.478       .  S
C334        H336   1.082       .  S
N337        N338   1.323   1_655  A
N337        C341   1.346       .  A
N337       Cu345   2.079       .  S
N338        C339   1.346       .  A
N338       Cu344   2.082       .  S
C339        C340   1.384       .  A
C339        H342   1.082       .  S
C340        C341   1.383   1_455  A
C340        C364   1.474   1_554  S
C341        H343   1.082       .  S
Cu344       N347   2.082   1_455  S
Cu345       N355   2.079       .  S
Cu346       N348   2.076       .  S
Cu346       N354   2.075       .  S
N347        N348   1.322       .  A
N347        C351   1.348   1_665  A
N348        C349   1.345       .  A
C349        C350   1.383   1_655  A
C349        H352   1.082       .  S
C350        C351   1.385   1_565  A
C351        H353   1.082       .  S
N354        N355   1.322       .  A
N354        C358   1.345       .  A
N355        C356   1.347       .  A
C356        C357   1.385       .  A
C356        H359   1.082       .  S
C357        C358   1.381       .  A
C357        C614   1.476       .  S
C358        H360   1.082       .  S
N361        N362   1.321       .  A
N361        C365   1.346       .  A
N361       Cu369   2.074   1_565  S
N362        C363   1.346       .  A
N362       Cu368   2.075       .  S
C363        C364   1.384       .  A
C363        H366   1.082   1_455  S
C364        C365   1.384       .  A
C365        H367   1.082   1_566  S
Cu368       N371   2.075       .  S
Cu369       N379   2.074       .  S
Cu370       N372   2.087       .  S
Cu370       N378   2.087       .  S
N371        N372   1.323   1_565  A
N371        C375   1.345       .  A
N372        C373   1.347       .  A
C373        C374   1.386   1_545  A
C373        H376   1.082       .  S
C374        C375   1.382       .  A
C375        H377   1.082   1_455  S
N378        N379   1.323       .  A
N378        C382   1.349       .  A
N379        C380   1.344       .  A
C380        C381   1.380       .  A
C380        H383   1.082       .  S
C381        C382   1.386       .  A
C381        C598   1.476       .  S
C382        H384   1.082       .  S
N385        N386   1.322       .  A
N385        C389   1.344       .  A
N385       Cu393   2.070       .  S
N386        C387   1.346       .  A
N386       Cu392   2.077       .  S
C387        C388   1.382       .  A
C387        H390   1.082       .  S
C388        C389   1.383       .  A
C388        C606   1.474       .  S
C389        H391   1.082       .  S
Cu392       N395   2.078       .  S
Cu393       N403   2.070       .  S
Cu394       N396   2.074       .  S
Cu394       N402   2.074       .  S
N395        N396   1.323       .  A
N395        C399   1.345       .  A
N396        C397   1.345       .  A
C397        C398   1.383       .  A
C397        H400   1.082       .  S
C398        C399   1.383       .  A
C398        C422   1.472       .  S
C399        H401   1.082       .  S
N402        N403   1.322       .  A
N402        C406   1.345       .  A
N403        C404   1.345       .  A
C404        C405   1.381       .  A
C404        H407   1.082       .  S
C405        C406   1.384       .  A
C405        C626   1.473       .  S
C406        H408   1.082       .  S
N409        N410   1.323       .  A
N409        C413   1.347       .  A
N409       Cu417   2.084       .  S
N410        C411   1.346       .  A
N410       Cu416   2.077       .  S
C411        C412   1.382       .  A
C411        H414   1.082       .  S
C412        C413   1.385       .  A
C412        C581   1.477       .  S
C413        H415   1.082       .  S
Cu416       N419   2.077       .  S
Cu417       N427   2.084       .  S
Cu418       N420   2.073       .  S
Cu418       N426   2.074       .  S
N419        N420   1.322       .  A
N419        C423   1.346       .  A
N420        C421   1.345       .  A
C421        C422   1.382       .  A
C421        H424   1.082       .  S
C422        C423   1.384       .  A
C423        H425   1.082       .  S
N426        N427   1.322       .  A
N426        C430   1.345       .  A
N427        C428   1.347       .  A
C428        C429   1.384       .  A
C428        H431   1.082       .  S
C429        C430   1.385       .  A
C429        C586   1.479       .  S
C430        H432   1.082       .  S
N433        N434   1.323       .  A
N433        C437   1.347       .  A
N433       Cu441   2.085       .  S
N434        C435   1.344       .  A
N434       Cu440   2.067       .  S
C435        C436   1.381       .  A
C435        H438   1.082       .  S
C436        C437   1.385       .  A
C436        C460   1.473       .  S
C437        H439   1.082       .  S
Cu440       N443   2.067       .  S
Cu441       N451   2.085       .  S
Cu442       N444   2.084       .  S
Cu442       N450   2.085       .  S
N443        N444   1.322       .  A
N443        C447   1.345       .  A
N444        C445   1.346       .  A
C445        C446   1.386       .  A
C445        H448   1.082       .  S
C446        C447   1.382       .  A
C446        C494   1.473       .  S
C447        H449   1.082       .  S
N450        N451   1.324       .  A
N450        C454   1.346       .  A
N451        C452   1.348       .  A
C452        C453   1.386       .  A
C452        H455   1.082       .  S
C453        C454   1.383       .  A
C453        C578   1.480       .  S
C454        H456   1.082       .  S
N457        N458   1.323       .  A
N457        C461   1.346       .  A
N457       Cu465   2.081   1_455  S
N458        C459   1.345       .  A
N458       Cu464   2.074       .  S
C459        C460   1.382       .  A
C459        H462   1.082       .  S
C460        C461   1.384       .  A
C461        H463   1.082       .  S
Cu464       N467   2.074       .  S
Cu465       N475   2.080       .  S
Cu466       N468   2.080   1_655  S
Cu466       N474   2.079       .  S
N467        N468   1.322       .  A
N467        C471   1.346       .  A
N468        C469   1.346       .  A
C469        C470   1.384       .  A
C469        H472   1.082   1_455  S
C470        C471   1.383       .  A
C470        C518   1.474       .  S
C471        H473   1.082       .  S
N474        N475   1.323       .  A
N474        C478   1.346       .  A
N475        C476   1.346       .  A
C476        C477   1.383       .  A
C476        H479   1.082       .  S
C477        C478   1.385       .  A
C477        C582   1.478       .  S
C478        H480   1.082       .  S
N481        N482   1.322   1_655  A
N481        C485   1.347   1_655  A
N481       Cu489   2.082       .  S
N482        C483   1.344       .  A
N482       Cu488   2.066       .  S
C483        C484   1.382       .  A
C483        H486   1.082       .  S
C484        C485   1.386       .  A
C484        C508   1.473   1_554  S
C485        H487   1.082   1_454  S
Cu488       N491   2.066       .  S
Cu489       N499   2.083       .  S
Cu490       N492   2.089       .  S
Cu490       N498   2.089       .  S
N491        N492   1.323   1_455  A
N491        C495   1.344       .  A
N492        C493   1.348       .  A
C493        C494   1.387   1_655  A
C493        H496   1.082       .  S
C494        C495   1.380       .  A
C495        H497   1.082       .  S
N498        N499   1.324       .  A
N498        C502   1.348       .  A
N499        C500   1.346       .  A
C500        C501   1.381       .  A
C500        H503   1.082       .  S
C501        C502   1.386       .  A
C501        C622   1.479       .  S
C502        H504   1.082       .  S
N505        N506   1.322       .  A
N505        C509   1.346       .  A
N505       Cu513   2.080       .  S
N506        C507   1.346       .  A
N506       Cu512   2.074       .  S
C507        C508   1.383       .  A
C507        H510   1.082       .  S
C508        C509   1.385       .  A
C509        H511   1.082       .  S
Cu512       N515   2.075       .  S
Cu513       N523   2.080       .  S
Cu514       N516   2.081       .  S
Cu514       N522   2.081       .  S
N515        N516   1.323       .  A
N515        C519   1.345       .  A
N516        C517   1.346       .  A
C517        C518   1.384       .  A
C517        H520   1.082       .  S
C518        C519   1.383       .  A
C519        H521   1.082       .  S
N522        N523   1.323       .  A
N522        C526   1.347       .  A
N523        C524   1.345       .  A
C524        C525   1.382       .  A
C524        H527   1.082       .  S
C525        C526   1.386       .  A
C525        C594   1.477       .  S
C526        H528   1.082       .  S
N529        N530   1.324       .  A
N529        C533   1.348       .  A
N529       Cu537   2.094       .  S
N530        C531   1.346       .  A
N530       Cu536   2.079       .  S
C531        C532   1.384       .  A
C531        H534   1.082       .  S
C532        C533   1.384       .  A
C532        C577   1.481       .  S
C533        H535   1.082       .  S
Cu536       N539   2.078       .  S
Cu537       N547   2.093       .  S
Cu538       N540   2.065       .  S
Cu538       N546   2.066       .  S
N539        N540   1.321       .  A
N539        C543   1.346       .  A
N540        C541   1.344       .  A
C541        C542   1.381       .  A
C541        H544   1.082       .  S
C542        C543   1.385       .  A
C542        C566   1.471       .  S
C543        H545   1.082       .  S
N546        N547   1.322       .  A
N546        C550   1.344       .  A
N547        C548   1.349       .  A
C548        C549   1.388       .  A
C548        H551   1.082       .  S
C549        C550   1.379       .  A
C549        C590   1.477       .  S
C550        H552   1.082       .  S
N553        N554   1.322       .  A
N553        C557   1.346       .  A
N553       Cu561   2.076       .  S
N554        C555   1.344       .  A
N554       Cu560   2.067       .  S
C555        C556   1.380       .  A
C555        H558   1.082       .  S
C556        C557   1.385       .  A
C556        C630   1.473       .  S
C557        H559   1.082       .  S
Cu560       N563   2.067       .  S
Cu561       N571   2.077       .  S
Cu562       N564   2.083       .  S
Cu562       N570   2.082       .  S
N563        N564   1.323       .  A
N563        C567   1.344       .  A
N564        C565   1.346       .  A
C565        C566   1.385       .  A
C565        H568   1.082       .  S
C566        C567   1.381       .  A
C567        H569   1.082       .  S
N570        N571   1.323       .  A
N570        C574   1.348       .  A
N571        C572   1.345       .  A
C572        C573   1.381       .  A
C572        H575   1.082       .  S
C573        C574   1.385       .  A
C573        C602   1.476       .  S
C574        H576   1.082       .  S
C577        C578   1.345       .  D
C577        H579   1.086       .  S
C578        H580   1.086       .  S
C581        C582   1.343       .  D
C581        H583   1.086       .  S
C582        H584   1.086       .  S
C585        C586   1.344       .  D
C585        H587   1.086       .  S
C586        H588   1.086       .  S
C589        C590   1.342       .  D
C589        H591   1.086       .  S
C590        H592   1.086       .  S
C593        C594   1.343       .  D
C593        H595   1.086       .  S
C594        H596   1.086       .  S
C597        C598   1.342       .  D
C597        H599   1.086       .  S
C598        H600   1.086       .  S
C601        C602   1.343       .  D
C601        H603   1.086       .  S
C602        H604   1.086       .  S
C605        C606   1.341       .  D
C605        H607   1.087       .  S
C606        H608   1.086       .  S
C609        C610   1.341       .  D
C609        H611   1.086       .  S
C610        H612   1.086       .  S
C613        C614   1.342       .  D
C613        H615   1.086       .  S
C614        H616   1.086       .  S
C617        C618   1.343       .  D
C617        H619   1.086       .  S
C618        H620   1.087       .  S
C621        C622   1.343       .  D
C621        H623   1.087       .  S
C622        H624   1.086       .  S
C625        C626   1.341       .  D
C625        H627   1.086       .  S
C626        H628   1.087       .  S
C629        C630   1.341       .  D
C629        H631   1.086       .  S
C630        H632   1.086       .  S
C633        C634   1.342       .  D
C633        H635   1.086       .  S
C634        H636   1.086       .  S
C637        C638   1.342       .  D
C637        H639   1.086       .  S
C638        H640   1.087       .  S
