geometry optimzed in LAMMPS
_audit_creation_date              2020-12-01 
_audit_creation_method            'lammps2cif' 
_symmetry_space_group_name_H-M    'P1' 
_symmetry_Int_Tables_number       1 
_symmetry_cell_setting            triclinic 
loop_ 
_symmetry_equiv_pos_as_xyz 
  x,y,z 
_cell_length_a                    40.45918326 
_cell_length_b                    40.4531290543955 
_cell_length_c                    29.172105640165572 
_cell_angle_alpha                 88.55317926516186 
_cell_angle_beta                  91.39883961676335 
_cell_angle_gamma                 91.00683077110935 
loop_ 
_atom_site_label 
_atom_site_type_symbol 
_atom_site_fract_x 
_atom_site_fract_y 
_atom_site_fract_z 
_atom_site_charge 
N1          N  0.26891887  0.20279780  0.01694626    -0.33900
N2          N  0.29753282  0.26860614  0.01807165    -0.54500
N3          N  0.23117380  0.29617858  0.52158771    -0.33900
N4          N  0.20227211  0.23069862  0.51295661    -0.54500
C5          C  0.30050202  0.19687785  0.00552521     0.29700
C6          C  0.25010713  0.17715532  0.00178141     0.29700
C7          C  0.24998555  0.32281005  0.50949214     0.29700
C8          C  0.19955902  0.30297710  0.50855787     0.29700
C9          C  0.32504006  0.25080090  0.02716360     0.38300
C10         C  0.30524677  0.30002756  0.52876751     0.38300
C11         C  0.19532544  0.19826515  0.02155409     0.38300
C12         C  0.17553909  0.24777365  0.52515174     0.38300
C13         C  0.30169815  0.16735050  0.98262047    -0.19200
C14         C  0.26991872  0.15499490  0.98003937    -0.19200
C15         C  0.23014816  0.34647446  0.48789984    -0.19200
C16         C  0.19835027  0.33400543  0.48747208    -0.19200
C17         C  0.35011258  0.27116700  0.04426853    -0.20300
C18         C  0.33754648  0.30243842  0.04522329    -0.20300
C19         C  0.16397527  0.19494322  0.54001198    -0.20300
C20         C  0.15158181  0.22623520  0.54235392    -0.20200
C21         C  0.32828031  0.21704664  0.01657406    -0.15600
C22         C  0.21610955  0.17207682  0.01046853    -0.15600
C23         C  0.17185204  0.28217475  0.51711424    -0.15600
C24         C  0.28411569  0.32706386  0.52018901    -0.15600
H25         H  0.32308931  0.15600430  0.96850565     0.17300
H26         H  0.26237675  0.13227202  0.96369615     0.17300
H27         H  0.23770950  0.37024133  0.47346736     0.17300
H28         H  0.17696208  0.34631612  0.47264067     0.17300
H29         H  0.37490535  0.26440008  0.05505458     0.15600
H30         H  0.35089631  0.32418235  0.05683327     0.15600
H31         H  0.15147009  0.17236068  0.55098567     0.15600
H32         H  0.12771634  0.23228349  0.55548845     0.15600
H33         H  0.26118968  0.22131264  0.03817655     0.28900
H34         H  0.23889328  0.27611182  0.54191058     0.28800
O35         O  0.17330308  0.13108802  0.99452530    -0.55100
C36         C  0.11161890  0.04756830  0.00138356     0.77500
O37         O  0.21299093  0.03461721  0.45914249    -0.56300
C38         C  0.20251279  0.13775005  0.00853690     0.77500
C39         C  0.20127378  0.04484330  0.09348499     0.79900
Cd40       Cd  0.17933186  0.07029797  0.00534027     1.37500
O41         O  0.11902565  0.07643348  0.01447955    -0.55100
O42         O  0.17820216  0.06541496  0.08935389    -0.53900
C43         C  0.20480316  0.04827161  0.42116335     0.79800
O44         O  0.21387755  0.03520002  0.05698461    -0.56300
O45         O  0.13533172  0.03029850  0.98885322    -0.54800
O46         O  0.22009353  0.11337439  0.02058713    -0.54700
O47         O  0.18579250  0.07269682  0.42216278    -0.53900
C48         C  0.26118812  0.48716051  0.21982970     0.05000
C49         C  0.23653766  0.01133508  0.21822370     0.04900
C50         C  0.22472546  0.02351150  0.25914497    -0.15600
C51         C  0.23697117  0.01144036  0.30157768     0.05000
C52         C  0.26078447  0.48642698  0.30317205     0.04900
C53         C  0.27291605  0.47457521  0.26224668    -0.15600
H54         H  0.29163470  0.45567946  0.26340032     0.07000
H55         H  0.20609920  0.04249783  0.25797796     0.07000
O56         O  0.32638513  0.36899262  0.00689811    -0.55100
C57         C  0.38794511  0.45243837  0.01352635     0.77500
O58         O  0.28536704  0.46385481  0.46427085    -0.56300
C59         C  0.29763717  0.36155453  0.02045421     0.77500
C60         C  0.29822613  0.45503140  0.10040776     0.79900
Cd61       Cd  0.32046812  0.42927973  0.01617072     1.37500
O62         O  0.38120157  0.42315816  0.02721820    -0.55100
O63         O  0.32298553  0.43644405  0.09955243    -0.53900
C64         C  0.29438299  0.45083889  0.42773275     0.79800
O65         O  0.28431278  0.46271264  0.06241501    -0.56300
O66         O  0.36363079  0.47011556  0.00152017    -0.54800
O67         O  0.28047619  0.38526064  0.03327861    -0.54700
O68         O  0.31458326  0.42742682  0.43175305    -0.53900
O69         O  0.13171659  0.32556453  0.02484903    -0.55100
C70         C  0.04624505  0.38770792  0.00739078     0.77500
O71         O  0.03264920  0.28884400  0.46118599    -0.56300
C72         C  0.13771106  0.29597570  0.01463000     0.77500
C73         C  0.04752980  0.29499674  0.09667823     0.79900
Cd74       Cd  0.07053723  0.32047226  0.01048315     1.37500
O75         O  0.07571507  0.38173857  0.99657300    -0.55100
O76         O  0.06814838  0.31877068  0.09428360    -0.53900
C77         C  0.04531812  0.29896493  0.42404997     0.79800
O78         O  0.03760644  0.28248623  0.05935254    -0.56300
O79         O  0.02903133  0.36293385  0.02004470    -0.54800
O80         O  0.11294915  0.27866043  0.00221363    -0.54700
O81         O  0.06940204  0.31919620  0.42683054    -0.53900
C82         C  0.01221421  0.26095351  0.21915619     0.04600
C83         C  0.48785567  0.23567309  0.21975703     0.04900
C84         C  0.47501408  0.22437983  0.26153288    -0.15600
C85         C  0.48627634  0.23810515  0.30273786     0.05000
C86         C  0.01067703  0.26334739  0.30220378     0.04900
C87         C  0.02351676  0.27466071  0.26039540    -0.15600
H88         H  0.04232692  0.29410172  0.25995479     0.07000
H89         H  0.45621402  0.20492586  0.26197403     0.07000
O90         O  0.42333577  0.11813808  0.99581857    -0.55100
C91         C  0.36199950  0.20295849  0.01403958     0.77500
O92         O  0.46606049  0.21051995  0.06090611    -0.56300
C93         C  0.45314345  0.11185989  0.00700087     0.77500
C94         C  0.45098506  0.20347777  0.42477163     0.79900
Cd95       Cd  0.42858779  0.17838570  0.01096107     1.37500
O96         O  0.36829804  0.17329076  0.02600635    -0.55100
O97         O  0.43050117  0.17956950  0.42703549    -0.53900
C98         C  0.45337791  0.20010533  0.09790863     0.79800
O99         O  0.46098356  0.21590240  0.46212911    -0.56300
O100        O  0.38607971  0.22020081  0.99954077    -0.54800
O101        O  0.47058781  0.13597083  0.02090303    -0.54700
O102        O  0.42945784  0.17969254  0.09489450    -0.53900
N103        N  0.45294351  0.01876127  0.00484907    -0.33900
N104        N  0.01870768  0.04741181  0.00359260    -0.54500
N105        N  0.04632076  0.48098966  0.00102386    -0.33900
N106        N  0.48079604  0.45224001  0.00963743    -0.54500
C107        C  0.44704879  0.05037846  0.01605238     0.29700
C108        C  0.42740049  0.99997725  0.02038134     0.29700
C109        C  0.07296621  0.49979102  0.01299672     0.29700
C110        C  0.05305352  0.44936993  0.01411597     0.29700
C111        C  0.00084066  0.07475654  0.99369983     0.38300
C112        C  0.05029666  0.05496044  0.99273573     0.38300
C113        C  0.44850167  0.44519851  0.00082271     0.38300
C114        C  0.49783209  0.42547530  0.99743761     0.38300
C115        C  0.41763606  0.05162941  0.03926091    -0.19200
C116        C  0.40531857  0.01983456  0.04219061    -0.19200
C117        C  0.09659003  0.47993329  0.03465764    -0.19200
C118        C  0.08407432  0.44813182  0.03518109    -0.19200
C119        C  0.02113554  0.09962234  0.97582756    -0.20300
C120        C  0.05245307  0.08710587  0.97528504    -0.20300
C121        C  0.44501225  0.41406505  0.98239283    -0.20300
C122        C  0.47626783  0.40161102  0.98009182    -0.20200
C123        C  0.46713917  0.07810801  0.00447625    -0.15600
C124        C  0.42229507  0.46598072  0.01181400    -0.15600
C125        C  0.03222318  0.42169490  0.00548050    -0.15600
C126        C  0.07729825  0.03387390  0.00189467    -0.15600
H127        H  0.40633120  0.07306010  0.05332014     0.17300
H128        H  0.38266409  0.01230756  0.05875116     0.17300
H129        H  0.12038213  0.48746659  0.04898717     0.17300
H130        H  0.09636145  0.42672025  0.05000285     0.17300
H131        H  0.01428045  0.12425047  0.96433610     0.15600
H132        H  0.07418640  0.10031096  0.96330752     0.15600
H133        H  0.42243378  0.40165034  0.97125722     0.15600
H134        H  0.48226134  0.37778196  0.96680842     0.15600
H135        H  0.47138180  0.01097251  0.98347467     0.28900
H136        H  0.02628158  0.48870568  0.98062580     0.28800
C137        C  0.47284302  0.22582203  0.34530967    -0.10600
C138        C  0.46255610  0.21578957  0.38153295    -0.12100
C139        C  0.47544356  0.22156242  0.17770626    -0.10600
C140        C  0.46541992  0.21121490  0.14152453    -0.12100
C141        C  0.02309469  0.27738359  0.34433888    -0.10600
C142        C  0.03312319  0.28772456  0.38054402    -0.12100
C143        C  0.02556323  0.27319137  0.17645319    -0.10600
C144        C  0.03578396  0.28295816  0.14002752    -0.12100
C145        C  0.28261421  0.46243230  0.38349163    -0.10600
C146        C  0.27304199  0.47288597  0.34651600    -0.12100
C147        C  0.27499378  0.47543286  0.17825828    -0.10600
C148        C  0.28601771  0.46636765  0.14281234    -0.12100
C149        C  0.22521554  0.02521225  0.34317185    -0.10600
C150        C  0.21610057  0.03616669  0.37864819    -0.12100
C151        C  0.21289448  0.03330090  0.13780377    -0.10600
C152        C  0.22323510  0.02378538  0.17485548    -0.12100
N153        N  0.26869564  0.20279483  0.51661626    -0.33900
N154        N  0.29750364  0.26846566  0.51802546    -0.54500
N155        N  0.23105864  0.29615811  0.02136761    -0.33900
N156        N  0.20235004  0.23058290  0.01281025    -0.54500
C157        C  0.30022040  0.19683320  0.50500282     0.29700
C158        C  0.24978586  0.17725164  0.50139699     0.29700
C159        C  0.24982674  0.32285310  0.00935082     0.29700
C160        C  0.19942356  0.30285567  0.00825805     0.29700
C161        C  0.32494520  0.25056137  0.52704281     0.38300
C162        C  0.30516880  0.30021480  0.02873143     0.38300
C163        C  0.19514404  0.19839797  0.52163472     0.38300
C164        C  0.17554030  0.24758451  0.02493409     0.38300
C165        C  0.30128408  0.16739970  0.48185219    -0.19200
C166        C  0.26946577  0.15512909  0.47935530    -0.19200
C167        C  0.22994550  0.34645693  0.98771425    -0.19200
C168        C  0.19817795  0.33388139  0.98715420    -0.19200
C169        C  0.35008769  0.27081706  0.54422007    -0.20300
C170        C  0.33762920  0.30213887  0.54524660    -0.20300
C171        C  0.16415749  0.19472392  0.03989718    -0.20300
C172        C  0.15166202  0.22596961  0.04218911    -0.20200
C173        C  0.32806418  0.21684334  0.51621564    -0.15600
C174        C  0.21585084  0.17217759  0.51043410    -0.15600
C175        C  0.17173424  0.28198117  0.01683055    -0.15600
C176        C  0.28395653  0.32720187  0.02011509    -0.15600
H177        H  0.32262361  0.15604198  0.46760932     0.17300
H178        H  0.26181083  0.13246135  0.46295351     0.17300
H179        H  0.23745973  0.37024764  0.97331242     0.17300
H180        H  0.17679439  0.34613269  0.97221149     0.17300
H181        H  0.37486706  0.26394938  0.55493372     0.15600
H182        H  0.35104488  0.32385219  0.55683542     0.15600
H183        H  0.15173406  0.17211002  0.05093174     0.15600
H184        H  0.12779220  0.23191654  0.05539004     0.15600
H185        H  0.26108780  0.22121981  0.53809367     0.28900
H186        H  0.23881251  0.27611652  0.04170439     0.28800
O187        O  0.17304479  0.13110340  0.49502178    -0.55100
C188        C  0.11157594  0.04766214  0.50158743     0.77500
O189        O  0.21269314  0.03413969  0.95897725    -0.56300
C190        C  0.20229587  0.13783900  0.50875712     0.77500
C191        C  0.20125623  0.04462103  0.59386356     0.79900
Cd192      Cd  0.17927219  0.07033865  0.50578210     1.37500
O193        O  0.11898262  0.07642421  0.51508771    -0.55100
O194        O  0.17827135  0.06530342  0.58989505    -0.53900
C195        C  0.20516383  0.04815379  0.92099788     0.79800
O196        O  0.21371164  0.03497903  0.55726364    -0.56300
O197        O  0.13529092  0.03045651  0.48889871    -0.54800
O198        O  0.21997816  0.11351630  0.52071186    -0.54700
O199        O  0.18656620  0.07290957  0.92185670    -0.53900
C200        C  0.26165553  0.48684519  0.71985378     0.05000
C201        C  0.23703896  0.01106203  0.71832795     0.04900
C202        C  0.22545492  0.02339283  0.75927886    -0.15600
C203        C  0.23785826  0.01142634  0.80166642     0.05000
C204        C  0.26166059  0.48640606  0.80320484     0.04900
C205        C  0.27357909  0.47439275  0.76224767    -0.15600
H206        H  0.29227182  0.45547090  0.76335586     0.07000
H207        H  0.20683783  0.04238821  0.75816928     0.07000
O208        O  0.32647008  0.36880618  0.50647087    -0.55100
C209        C  0.38790702  0.45211418  0.51232981     0.77500
O210        O  0.28534378  0.46363015  0.96434561    -0.56300
C211        C  0.29783173  0.36137161  0.52044516     0.77500
C212        C  0.29837558  0.45473070  0.60020595     0.79900
Cd213      Cd  0.32042246  0.42907984  0.51572344     1.37500
O214        O  0.38117669  0.42302732  0.52681384    -0.55100
O215        O  0.32324623  0.43630918  0.59914239    -0.53900
C216        C  0.29513255  0.45106724  0.92790076     0.79800
O217        O  0.28430014  0.46235851  0.56230946    -0.56300
O218        O  0.36360257  0.46959624  0.49968126    -0.54800
O219        O  0.28074061  0.38505872  0.53349466    -0.54700
O220        O  0.31584776  0.42812917  0.93212776    -0.53900
O221        O  0.13188790  0.32564518  0.52589391    -0.55100
C222        C  0.04644040  0.38782716  0.50792932     0.77500
O223        O  0.03246407  0.28858393  0.96061687    -0.56300
C224        C  0.13790845  0.29624192  0.51481628     0.77500
C225        C  0.04797006  0.29437136  0.59654040     0.79900
Cd226      Cd  0.07079652  0.32069621  0.51081133     1.37500
O227        O  0.07578237  0.38186989  0.49650508    -0.55100
O228        O  0.06816778  0.31852633  0.59454908    -0.53900
C229        C  0.04571710  0.29810622  0.92360729     0.79800
O230        O  0.03829591  0.28200040  0.55901390    -0.56300
O231        O  0.02944127  0.36312012  0.52138652    -0.54800
O232        O  0.11325033  0.27916779  0.50142947    -0.54700
O233        O  0.06998562  0.31809870  0.92654832    -0.53900
C234        C  0.01284931  0.25959024  0.71871952     0.04600
C235        C  0.48779445  0.23500137  0.71935722     0.04900
C236        C  0.47474796  0.22403707  0.76115133    -0.15600
C237        C  0.48646739  0.23743490  0.80233976     0.05000
C238        C  0.01153533  0.26201436  0.80177237     0.04900
C239        C  0.02462995  0.27294751  0.75994841    -0.15600
H240        H  0.04391418  0.29191786  0.75947233     0.07000
H241        H  0.45541974  0.20510800  0.76161870     0.07000
O242        O  0.42327107  0.11793230  0.49474023    -0.55100
C243        C  0.36170835  0.20264994  0.51362265     0.77500
O244        O  0.46563515  0.21000729  0.56070950    -0.56300
C245        C  0.45289411  0.11159758  0.50685228     0.77500
C246        C  0.45100921  0.20355904  0.92463708     0.79900
Cd247      Cd  0.42822249  0.17803398  0.51071388     1.37500
O248        O  0.36792895  0.17297521  0.52565648    -0.55100
O249        O  0.43065849  0.17955399  0.92722224    -0.53900
C250        C  0.45267485  0.19985028  0.59764352     0.79800
O251        O  0.46100380  0.21623251  0.96183071    -0.56300
O252        O  0.38580695  0.21982639  0.49904781    -0.54800
O253        O  0.47006667  0.13557999  0.52173758    -0.54700
O254        O  0.42857612  0.17964762  0.59457360    -0.53900
N255        N  0.45285436  0.01855476  0.50418271    -0.33900
N256        N  0.01862900  0.04734706  0.50328956    -0.54500
N257        N  0.04634330  0.48103950  0.50094470    -0.33900
N258        N  0.48077276  0.45215658  0.50912430    -0.54500
C259        C  0.44684246  0.05014151  0.51539028     0.29700
C260        C  0.42718071  0.99974270  0.51923191     0.29700
C261        C  0.07295443  0.49988044  0.51293975     0.29700
C262        C  0.05307945  0.44946514  0.51423804     0.29700
C263        C  0.00074382  0.07471962  0.49369853     0.38300
C264        C  0.05024810  0.05504191  0.49275799     0.38300
C265        C  0.44853414  0.44496714  0.50012868     0.38300
C266        C  0.49794252  0.42536265  0.49741010     0.38300
C267        C  0.41721288  0.05134478  0.53809025    -0.19200
C268        C  0.40487916  0.01955620  0.54069924    -0.19200
C269        C  0.09656024  0.48009139  0.53476547    -0.19200
C270        C  0.08406570  0.44829331  0.53540610    -0.19200
C271        C  0.02106177  0.09976798  0.47636021    -0.20300
C272        C  0.05240850  0.08731921  0.47580503    -0.20300
C273        C  0.44521177  0.41369906  0.48208434    -0.20300
C274        C  0.47652456  0.40131143  0.48021747    -0.20200
C275        C  0.46698177  0.07791779  0.50423663    -0.15600
C276        C  0.42221569  0.46573200  0.51067961    -0.15600
C277        C  0.03231591  0.42173680  0.50572399    -0.15600
C278        C  0.07726047  0.03396515  0.50188238    -0.15600
H279        H  0.40575953  0.07274841  0.55199973     0.17300
H280        H  0.38207658  0.01200538  0.55685446     0.17300
H281        H  0.12031423  0.48767653  0.54916571     0.17300
H282        H  0.09633722  0.42691807  0.55036676     0.17300
H283        H  0.01420160  0.12448150  0.46526692     0.15600
H284        H  0.07416829  0.10067353  0.46422072     0.15600
H285        H  0.42270032  0.40114310  0.47098675     0.15600
H286        H  0.48266261  0.37739211  0.46735840     0.15600
H287        H  0.47149170  0.01080699  0.48310443     0.28900
H288        H  0.02632696  0.48869059  0.48044366     0.28800
C289        C  0.47282062  0.22548506  0.84494035    -0.10600
C290        C  0.46248407  0.21567108  0.88124126    -0.12100
C291        C  0.47493129  0.22121330  0.67735655    -0.10600
C292        C  0.46468861  0.21096239  0.64124314    -0.12100
C293        C  0.02410585  0.27599812  0.84386649    -0.10600
C294        C  0.03394131  0.28650611  0.88007379    -0.12100
C295        C  0.02623190  0.27172250  0.67599495    -0.10600
C296        C  0.03638499  0.28177154  0.63967520    -0.12100
C297        C  0.28358240  0.46260030  0.88354776    -0.10600
C298        C  0.27404153  0.47296781  0.84652446    -0.12100
C299        C  0.27528725  0.47500805  0.67822739    -0.10600
C300        C  0.28623241  0.46595395  0.64272137    -0.12100
C301        C  0.22609879  0.02518624  0.84325736    -0.10600
C302        C  0.21676640  0.03610347  0.87863317    -0.12100
C303        C  0.21298734  0.03297947  0.63809568    -0.10600
C304        C  0.22352389  0.02342483  0.67503154    -0.12100
N305        N  0.26891928  0.70279779  0.01694719    -0.33900
N306        N  0.29753322  0.76860648  0.01807200    -0.54500
N307        N  0.23117333  0.79617806  0.52158776    -0.33900
N308        N  0.20227165  0.73069780  0.51295628    -0.54500
C309        C  0.30050247  0.69687801  0.00552593     0.29700
C310        C  0.25010772  0.67715514  0.00178219     0.29700
C311        C  0.24998495  0.82280977  0.50949279     0.29700
C312        C  0.19955860  0.80297639  0.50855771     0.29700
C313        C  0.32504044  0.75080126  0.02716395     0.38300
C314        C  0.30524616  0.80002744  0.52876817     0.38300
C315        C  0.19532604  0.69826483  0.02155471     0.38300
C316        C  0.17553860  0.74777283  0.52515115     0.38300
C317        C  0.30169876  0.66735074  0.98262111    -0.19200
C318        C  0.26991943  0.65499494  0.98004001    -0.19200
C319        C  0.23014750  0.84647416  0.48790057    -0.19200
C320        C  0.19834973  0.83400482  0.48747224    -0.19200
C321        C  0.35011303  0.77116742  0.04426857    -0.20300
C322        C  0.33754698  0.80243888  0.04522324    -0.20300
C323        C  0.16397447  0.69494236  0.54001063    -0.20300
C324        C  0.15158111  0.72623437  0.54235276    -0.20200
C325        C  0.32828064  0.71704696  0.01657470    -0.15600
C326        C  0.21611014  0.67207649  0.01046921    -0.15600
C327        C  0.17185167  0.78217394  0.51711379    -0.15600
C328        C  0.28411503  0.82706374  0.52018990    -0.15600
H329        H  0.32308996  0.65600475  0.96850607     0.17300
H330        H  0.26237762  0.63227212  0.96369653     0.17300
H331        H  0.23770870  0.87024121  0.47346854     0.17300
H332        H  0.17696151  0.84631541  0.47264077     0.17300
H333        H  0.37490580  0.76440047  0.05505457     0.15600
H334        H  0.35089688  0.82418280  0.05683317     0.15600
H335        H  0.15146907  0.67235982  0.55098383     0.15600
H336        H  0.12771554  0.73228268  0.55548696     0.15600
H337        H  0.26119016  0.72131230  0.03817756     0.28900
H338        H  0.23889284  0.77611112  0.54191042     0.28800
O339        O  0.17330352  0.63108778  0.99452599    -0.55100
C340        C  0.11161917  0.54756843  0.00138212     0.77500
O341        O  0.21299025  0.53461587  0.45914079    -0.56300
C342        C  0.20251337  0.63774969  0.00853708     0.77500
C343        C  0.20127369  0.54484211  0.09348337     0.79900
Cd344      Cd  0.17933234  0.57029760  0.00533901     1.37500
O345        O  0.11902621  0.57643337  0.01447882    -0.55100
O346        O  0.17820101  0.56541256  0.08935216    -0.53900
C347        C  0.20480304  0.54827108  0.42116198     0.79800
O348        O  0.21387886  0.53520035  0.05698315    -0.56300
O349        O  0.13533177  0.53029871  0.98885085    -0.54800
O350        O  0.22009427  0.61337387  0.02058616    -0.54700
O351        O  0.18579317  0.57269688  0.42216197    -0.53900
C352        C  0.26118807  0.98716071  0.21983103     0.05000
C353        C  0.23653709  0.51133422  0.21822228     0.04900
C354        C  0.22472450  0.52351044  0.25914343    -0.15600
C355        C  0.23697052  0.51143973  0.30157617     0.05000
C356        C  0.26078470  0.98642721  0.30317340     0.04900
C357        C  0.27291584  0.97457513  0.26224794    -0.15600
H358        H  0.29163403  0.95567892  0.26340143     0.07000
H359        H  0.20609777  0.54249633  0.25797629     0.07000
O360        O  0.32638525  0.86899322  0.00689905    -0.55100
C361        C  0.38794466  0.95243890  0.01352634     0.77500
O362        O  0.28536737  0.96385570  0.46427216    -0.56300
C363        C  0.29763723  0.86155489  0.02045473     0.77500
C364        C  0.29822556  0.95503145  0.10040890     0.79900
Cd365      Cd  0.32046761  0.92928026  0.01617153     1.37500
O366        O  0.38120111  0.92315864  0.02721792    -0.55100
O367        O  0.32298573  0.93644513  0.09955314    -0.53900
C368        C  0.29438285  0.95083914  0.42773427     0.79800
O369        O  0.28431149  0.96271201  0.06241641    -0.56300
O370        O  0.36363027  0.97011625  0.00152089    -0.54800
O371        O  0.28047596  0.88526083  0.03327893    -0.54700
O372        O  0.31458238  0.92742646  0.43175489    -0.53900
O373        O  0.13171698  0.82556450  0.02484736    -0.55100
C374        C  0.04624549  0.88770749  0.00739000     0.77500
O375        O  0.03264902  0.78884440  0.46118537    -0.56300
C376        C  0.13771138  0.79597539  0.01462958     0.77500
C377        C  0.04753060  0.79499576  0.09667790     0.79900
Cd378      Cd  0.07053753  0.82047185  0.01048279     1.37500
O379        O  0.07571561  0.88173812  0.99657270    -0.55100
O380        O  0.06814964  0.81876933  0.09428349    -0.53900
C381        C  0.04531941  0.79896348  0.42404945     0.79800
O382        O  0.03760633  0.78248621  0.05935201    -0.56300
O383        O  0.02903163  0.86293345  0.02004363    -0.54800
O384        O  0.11294933  0.77865981  0.00221457    -0.54700
O385        O  0.06940405  0.81919392  0.42682998    -0.53900
C386        C  0.01221776  0.76094945  0.21915607     0.04600
C387        C  0.48785170  0.73567679  0.21975751     0.04900
C388        C  0.47500989  0.72438366  0.26153324    -0.15600
C389        C  0.48627239  0.73810867  0.30273827     0.05000
C390        C  0.01068078  0.76334293  0.30220372     0.04900
C391        C  0.02352039  0.77465645  0.26039535    -0.15600
H392        H  0.04233015  0.79409784  0.25995476     0.07000
H393        H  0.45620967  0.70492986  0.26197428     0.07000
O394        O  0.42333544  0.61813799  0.99582025    -0.55100
C395        C  0.36199976  0.70295884  0.01404027     0.77500
O396        O  0.46605958  0.71052078  0.06090700    -0.56300
C397        C  0.45314327  0.61185986  0.00700166     0.77500
C398        C  0.45098313  0.70347932  0.42477207     0.79900
Cd399      Cd  0.42858764  0.67838596  0.01096173     1.37500
O400        O  0.36829827  0.67329116  0.02600742    -0.55100
O401        O  0.43049926  0.67957103  0.42703585    -0.53900
C402        C  0.45337596  0.70010717  0.09790929     0.79800
O403        O  0.46098229  0.71590336  0.46212964    -0.56300
O404        O  0.38607989  0.72020108  0.99954104    -0.54800
O405        O  0.47058786  0.63597099  0.02090267    -0.54700
O406        O  0.42945584  0.67969447  0.09489497    -0.53900
N407        N  0.45294355  0.51876109  0.00485009    -0.33900
N408        N  0.01870790  0.54741221  0.00359219    -0.54500
N409        N  0.04632110  0.98098922  0.00102385    -0.33900
N410        N  0.48079570  0.95224021  0.00963739    -0.54500
C411        C  0.44704866  0.55037823  0.01605332     0.29700
C412        C  0.42740066  0.49997686  0.02038204     0.29700
C413        C  0.07296613  0.99979072  0.01299763     0.29700
C414        C  0.05305385  0.94936950  0.01411570     0.29700
C415        C  0.00084094  0.57475708  0.99370022     0.38300
C416        C  0.05029689  0.55496089  0.99273536     0.38300
C417        C  0.44850128  0.94519871  0.00082275     0.38300
C418        C  0.49783172  0.92547534  0.99743811     0.38300
C419        C  0.41763583  0.55162898  0.03926165    -0.19200
C420        C  0.40531853  0.51983404  0.04219120    -0.19200
C421        C  0.09658983  0.97993303  0.03465900    -0.19200
C422        C  0.08407437  0.94813145  0.03518169    -0.19200
C423        C  0.02113591  0.59962308  0.97582856    -0.20300
C424        C  0.05245337  0.58710652  0.97528548    -0.20300
C425        C  0.44501181  0.91406505  0.98239348    -0.20300
C426        C  0.47626738  0.90161094  0.98009276    -0.20200
C427        C  0.46713896  0.57810788  0.00447725    -0.15600
C428        C  0.42229472  0.96598111  0.01181361    -0.15600
C429        C  0.03222369  0.92169448  0.00547957    -0.15600
C430        C  0.07729843  0.53387417  0.00189361    -0.15600
H431        H  0.40633075  0.57305957  0.05332082     0.17300
H432        H  0.38266400  0.51230688  0.05875148     0.17300
H433        H  0.12038167  0.98746642  0.04898928     0.17300
H434        H  0.09636141  0.92671987  0.05000358     0.17300
H435        H  0.01428096  0.62425139  0.96433778     0.15600
H436        H  0.07418669  0.60031171  0.96330814     0.15600
H437        H  0.42243334  0.90165027  0.97125802     0.15600
H438        H  0.48226081  0.87778176  0.96680970     0.15600
H439        H  0.47138208  0.51097238  0.98347566     0.28900
H440        H  0.02628196  0.98870532  0.98062530     0.28800
C441        C  0.47283950  0.72582505  0.34531004    -0.10600
C442        C  0.46255330  0.71579189  0.38153336    -0.12100
C443        C  0.47543992  0.72156582  0.17770682    -0.10600
C444        C  0.46541694  0.71121769  0.14152516    -0.12100
C445        C  0.02309765  0.77737992  0.34433874    -0.10600
C446        C  0.03312537  0.78772189  0.38054370    -0.12100
C447        C  0.02556571  0.77318845  0.17645293    -0.10600
C448        C  0.03578550  0.78295630  0.14002720    -0.12100
C449        C  0.28261435  0.96243248  0.38349299    -0.10600
C450        C  0.27304225  0.97288613  0.34651730    -0.12100
C451        C  0.27499337  0.97543275  0.17825959    -0.10600
C452        C  0.28601717  0.96636741  0.14281366    -0.12100
C453        C  0.22521496  0.52521181  0.34317022    -0.10600
C454        C  0.21610015  0.53616634  0.37864657    -0.12100
C455        C  0.21289403  0.53329951  0.13780216    -0.10600
C456        C  0.22323442  0.52378415  0.17485401    -0.12100
N457        N  0.26869501  0.70279434  0.51661631    -0.33900
N458        N  0.29750298  0.76846553  0.51802614    -0.54500
N459        N  0.23105904  0.79615801  0.02136727    -0.33900
N460        N  0.20235058  0.73058258  0.01281056    -0.54500
C461        C  0.30021986  0.69683292  0.50500321     0.29700
C462        C  0.24978545  0.67725106  0.50139687     0.29700
C463        C  0.24982707  0.82285317  0.00935067     0.29700
C464        C  0.19942393  0.80285545  0.00825742     0.29700
C465        C  0.32494450  0.75056120  0.52704352     0.38300
C466        C  0.30516924  0.80021518  0.02873153     0.38300
C467        C  0.19514342  0.69839713  0.52163393     0.38300
C468        C  0.17554080  0.74758425  0.02493414     0.38300
C469        C  0.30128381  0.66739944  0.48185257    -0.19200
C470        C  0.26946560  0.65512863  0.47935535    -0.19200
C471        C  0.22994578  0.84645691  0.98771403    -0.19200
C472        C  0.19817829  0.83388116  0.98715358    -0.19200
C473        C  0.35008701  0.77081688  0.54422075    -0.20300
C474        C  0.33762860  0.80213872  0.54524719    -0.20300
C475        C  0.16415812  0.69472366  0.03989786    -0.20300
C476        C  0.15166261  0.72596936  0.04218945    -0.20200
C477        C  0.32806350  0.71684315  0.51621636    -0.15600
C478        C  0.21585039  0.67217682  0.51043357    -0.15600
C479        C  0.17173463  0.78198089  0.01683009    -0.15600
C480        C  0.28395682  0.82720214  0.02011528    -0.15600
H481        H  0.32262346  0.65604182  0.46760991     0.17300
H482        H  0.26181091  0.63246087  0.46295343     0.17300
H483        H  0.23745992  0.87024775  0.97331252     0.17300
H484        H  0.17679473  0.84613240  0.97221075     0.17300
H485        H  0.37486636  0.76394919  0.55493444     0.15600
H486        H  0.35104437  0.82385200  0.55683594     0.15600
H487        H  0.15173473  0.67210981  0.05093270     0.15600
H488        H  0.12779282  0.73191628  0.05539043     0.15600
H489        H  0.26108697  0.72121938  0.53809364     0.28900
H490        H  0.23881277  0.77611674  0.04170437     0.28800
O491        O  0.17304465  0.63110235  0.49502105    -0.55100
C492        C  0.11157600  0.54766119  0.50158810     0.77500
O493        O  0.21269265  0.53413842  0.95897600    -0.56300
C494        C  0.20229565  0.63783815  0.50875655     0.77500
C495        C  0.20125704  0.54462039  0.59386260     0.79900
Cd496      Cd  0.17927242  0.57033765  0.50578125     1.37500
O497        O  0.11898302  0.57642333  0.51508773    -0.55100
O498        O  0.17827189  0.56530244  0.58989414    -0.53900
C499        C  0.20516411  0.54815309  0.92099675     0.79800
O500        O  0.21371261  0.53497859  0.55726267    -0.56300
O501        O  0.13529073  0.53045531  0.48889909    -0.54800
O502        O  0.21997809  0.61351557  0.52071140    -0.54700
O503        O  0.18656742  0.57290959  0.92185566    -0.53900
C504        C  0.26165437  0.98684512  0.71985481     0.05000
C505        C  0.23703971  0.51106168  0.71832701     0.04900
C506        C  0.22545530  0.52339214  0.75927791    -0.15600
C507        C  0.23785876  0.51142578  0.80166543     0.05000
C508        C  0.26165967  0.98640624  0.80320585     0.04900
C509        C  0.27357782  0.97439259  0.76224869    -0.15600
H510        H  0.29227025  0.95547044  0.76335690     0.07000
H511        H  0.20683782  0.54238716  0.75816837     0.07000
O512        O  0.32646926  0.86880628  0.50647190    -0.55100
C513        C  0.38790637  0.95211405  0.51233170     0.77500
O514        O  0.28534291  0.96363057  0.96434675    -0.56300
C515        C  0.29783100  0.86137156  0.52044638     0.77500
C516        C  0.29837471  0.95473067  0.60020733     0.79900
Cd517      Cd  0.32042182  0.92907992  0.51572502     1.37500
O518        O  0.38117598  0.92302707  0.52681519    -0.55100
O519        O  0.32324564  0.93630951  0.59914393    -0.53900
C520        C  0.29513186  0.95106787  0.92790185     0.79800
O521        O  0.28429918  0.96235818  0.56231079    -0.56300
O522        O  0.36360197  0.96959634  0.49968368    -0.54800
O523        O  0.28073992  0.88505858  0.53349636    -0.54700
O524        O  0.31584736  0.92813007  0.93212873    -0.53900
O525        O  0.13188776  0.82564423  0.52589454    -0.55100
C526        C  0.04644117  0.88782725  0.50792816     0.77500
O527        O  0.03246421  0.78858369  0.96061624    -0.56300
C528        C  0.13790821  0.79624119  0.51481577     0.77500
C529        C  0.04797149  0.79436996  0.59653969     0.79900
Cd530      Cd  0.07079678  0.82069594  0.51081066     1.37500
O531        O  0.07578332  0.88186982  0.49650492    -0.55100
O532        O  0.06816893  0.81852514  0.59454829    -0.53900
C533        C  0.04571842  0.79810474  0.92360694     0.79800
O534        O  0.03829666  0.78199951  0.55901315    -0.56300
O535        O  0.02944173  0.86312022  0.52138469    -0.54800
O536        O  0.11325018  0.77916745  0.50142770    -0.54700
O537        O  0.06998736  0.81809667  0.92654827    -0.53900
C538        C  0.01285348  0.75958675  0.71871923     0.04600
C539        C  0.48779044  0.73500499  0.71935770     0.04900
C540        C  0.47474368  0.72404093  0.76115176    -0.15600
C541        C  0.48646339  0.73743849  0.80234026     0.05000
C542        C  0.01153921  0.76201080  0.80177204     0.04900
C543        C  0.02463417  0.77294382  0.75994821    -0.15600
H544        H  0.04391837  0.79191420  0.75947224     0.07000
H545        H  0.45541541  0.70511191  0.76161913     0.07000
O546        O  0.42327086  0.61793292  0.49473929    -0.55100
C547        C  0.36170768  0.70264990  0.51362334     0.77500
O548        O  0.46563424  0.71000775  0.56071019    -0.56300
C549        C  0.45289392  0.61159822  0.50685130     0.77500
C550        C  0.45100743  0.70356072  0.92463771     0.79900
Cd551      Cd  0.42822180  0.67803443  0.51071424     1.37500
O552        O  0.36792851  0.67297530  0.52565763    -0.55100
O553        O  0.43065537  0.67955680  0.92722265    -0.53900
C554        C  0.45267323  0.69985144  0.59764406     0.79800
O555        O  0.46100437  0.71623220  0.96183160    -0.56300
O556        O  0.38580606  0.71982639  0.49904788    -0.54800
O557        O  0.47006629  0.63558060  0.52173718    -0.54700
O558        O  0.42857448  0.67964880  0.59457394    -0.53900
N559        N  0.45285474  0.51855524  0.50418077    -0.33900
N560        N  0.01862913  0.54734672  0.50329223    -0.54500
N561        N  0.04634380  0.98103982  0.50094238    -0.33900
N562        N  0.48077196  0.95215622  0.50912523    -0.54500
C563        C  0.44684251  0.55014202  0.51538828     0.29700
C564        C  0.42718112  0.49974305  0.51922990     0.29700
C565        C  0.07295473  0.99988098  0.51293774     0.29700
C566        C  0.05308019  0.94946548  0.51423591     0.29700
C567        C  0.00074395  0.57471919  0.49370083     0.38300
C568        C  0.05024816  0.55504141  0.49276010     0.38300
C569        C  0.44853332  0.94496686  0.50012978     0.38300
C570        C  0.49794164  0.92536239  0.49741058     0.38300
C571        C  0.41721283  0.55134509  0.53808797    -0.19200
C572        C  0.40487936  0.51955644  0.54069695    -0.19200
C573        C  0.09656058  0.98009211  0.53476371    -0.19200
C574        C  0.08406637  0.94829391  0.53540416    -0.19200
C575        C  0.02106183  0.59976736  0.47636184    -0.20300
C576        C  0.05240855  0.58731858  0.47580661    -0.20300
C577        C  0.44521081  0.91369890  0.48208506    -0.20300
C578        C  0.47652361  0.90131126  0.48021786    -0.20200
C579        C  0.46698175  0.57791847  0.50423511    -0.15600
C580        C  0.42221504  0.96573172  0.51068136    -0.15600
C581        C  0.03231673  0.92173700  0.50572227    -0.15600
C582        C  0.07726044  0.53396449  0.50188405    -0.15600
H583        H  0.40575927  0.57274862  0.55199740     0.17300
H584        H  0.38207679  0.51200548  0.55685207     0.17300
H585        H  0.12031438  0.98767746  0.54916435     0.17300
H586        H  0.09633801  0.92691880  0.55036504     0.17300
H587        H  0.01420161  0.62448075  0.46526800     0.15600
H588        H  0.07416826  0.60067278  0.46422181     0.15600
H589        H  0.42269929  0.90114299  0.47098762     0.15600
H590        H  0.48266163  0.87739195  0.46735877     0.15600
H591        H  0.47149214  0.51080754  0.48310289     0.28900
H592        H  0.02632752  0.98869078  0.48044135     0.28800
C593        C  0.47281705  0.72548825  0.84494085    -0.10600
C594        C  0.46248122  0.71567367  0.88124185    -0.12100
C595        C  0.47492804  0.72121617  0.67735703    -0.10600
C596        C  0.46468615  0.71096441  0.64124368    -0.12100
C597        C  0.02410893  0.77599516  0.84386615    -0.10600
C598        C  0.03394354  0.78650384  0.88007345    -0.12100
C599        C  0.02623554  0.77171956  0.67599463    -0.10600
C600        C  0.03638762  0.78176928  0.63967466    -0.12100
C601        C  0.28358154  0.96260077  0.88354888    -0.10600
C602        C  0.27404062  0.97296804  0.84652549    -0.12100
C603        C  0.27528602  0.97500785  0.67822852    -0.10600
C604        C  0.28623131  0.96595381  0.64272259    -0.12100
C605        C  0.22609904  0.52518547  0.84325633    -0.10600
C606        C  0.21676655  0.53610266  0.87863207    -0.12100
C607        C  0.21298820  0.53297892  0.63809470    -0.10600
C608        C  0.22352463  0.52342440  0.67503064    -0.12100
N609        N  0.76891934  0.20279786  0.01694659    -0.33900
N610        N  0.79753346  0.26860646  0.01807098    -0.54500
N611        N  0.73117384  0.29617824  0.52158666    -0.33900
N612        N  0.70227214  0.23069793  0.51295553    -0.54500
C613        C  0.80050250  0.19687794  0.00552535     0.29700
C614        C  0.75010772  0.17715514  0.00178195     0.29700
C615        C  0.74998538  0.32281000  0.50949176     0.29700
C616        C  0.69955907  0.30297662  0.50855692     0.29700
C617        C  0.82504072  0.25080126  0.02716264     0.38300
C618        C  0.80524665  0.30002762  0.52876621     0.38300
C619        C  0.69532602  0.19826513  0.02155399     0.38300
C620        C  0.67553911  0.24777302  0.52515042     0.38300
C621        C  0.80169871  0.16735051  0.98262092    -0.19200
C622        C  0.76991938  0.15499475  0.98004005    -0.19200
C623        C  0.73014786  0.34647450  0.48789993    -0.19200
C624        C  0.69835009  0.33400517  0.48747177    -0.19200
C625        C  0.85011344  0.27116744  0.04426691    -0.20300
C626        C  0.83754735  0.30243886  0.04522182    -0.20300
C627        C  0.66397497  0.19494261  0.54001023    -0.20300
C628        C  0.65158162  0.22623463  0.54235219    -0.20200
C629        C  0.82828075  0.21704688  0.01657373    -0.15600
C630        C  0.71611010  0.17207665  0.01046887    -0.15600
C631        C  0.67185220  0.28217415  0.51711309    -0.15600
C632        C  0.78411546  0.32706391  0.52018866    -0.15600
H633        H  0.82308988  0.15600440  0.96850597     0.17300
H634        H  0.76237753  0.13227183  0.96369687     0.17300
H635        H  0.73770904  0.37024163  0.47346812     0.17300
H636        H  0.67696178  0.34631585  0.47264073     0.17300
H637        H  0.87490630  0.26440053  0.05505255     0.15600
H638        H  0.85089728  0.32418281  0.05683155     0.15600
H639        H  0.65146959  0.17236012  0.55098369     0.15600
H640        H  0.62771607  0.23228303  0.55548638     0.15600
H641        H  0.76119026  0.22131259  0.03817669     0.28900
H642        H  0.73889344  0.27611124  0.54190914     0.28800
O643        O  0.67330339  0.13108790  0.99452594    -0.55100
C644        C  0.61161907  0.04756855  0.00138216     0.77500
O645        O  0.71299034  0.03461630  0.45914098    -0.56300
C646        C  0.70251326  0.13774984  0.00853695     0.77500
C647        C  0.70127339  0.04484226  0.09348355     0.79900
Cd648      Cd  0.67933219  0.07029766  0.00533915     1.37500
O649        O  0.61902608  0.07643366  0.01447818    -0.55100
O650        O  0.67820060  0.06541258  0.08935226    -0.53900
C651        C  0.70480236  0.04827076  0.42116196     0.79800
O652        O  0.71387874  0.03520060  0.05698339    -0.56300
O653        O  0.63533171  0.03029861  0.98885157    -0.54800
O654        O  0.72009413  0.11337402  0.02058611    -0.54700
O655        O  0.68579190  0.07269612  0.42216171    -0.53900
C656        C  0.76118808  0.48716085  0.21983072     0.05000
C657        C  0.73653703  0.01133432  0.21822227     0.04900
C658        C  0.72472399  0.02351004  0.25914345    -0.15600
C659        C  0.73696999  0.01143928  0.30157618     0.05000
C660        C  0.76078476  0.48642695  0.30317311     0.04900
C661        C  0.77291603  0.47457521  0.26224752    -0.15600
H662        H  0.79163435  0.45567913  0.26340084     0.07000
H663        H  0.70609694  0.04249561  0.25797633     0.07000
O664        O  0.82638534  0.36899338  0.00689838    -0.55100
C665        C  0.88794454  0.45243894  0.01352653     0.77500
O666        O  0.78536773  0.46385579  0.46427163    -0.56300
C667        C  0.79763741  0.36155488  0.02045425     0.77500
C668        C  0.79822502  0.45503125  0.10040834     0.79900
Cd669      Cd  0.82046750  0.42928025  0.01617117     1.37500
O670        O  0.88120097  0.42315858  0.02721760    -0.55100
O671        O  0.82298507  0.43644476  0.09955276    -0.53900
C672        C  0.79438291  0.45083888  0.42773384     0.79800
O673        O  0.78431109  0.46271185  0.06241576    -0.56300
O674        O  0.86363016  0.47011640  0.00152141    -0.54800
O675        O  0.78047610  0.38526067  0.03327888    -0.54700
O676        O  0.81458225  0.42742606  0.43175457    -0.53900
O677        O  0.63171739  0.32556505  0.02484577    -0.55100
C678        C  0.54624552  0.38770803  0.00738966     0.77500
O679        O  0.53265008  0.28884355  0.46118604    -0.56300
C680        C  0.63771168  0.29597593  0.01462793     0.77500
C681        C  0.54753150  0.29499631  0.09667778     0.79900
Cd682      Cd  0.57053781  0.32047245  0.01048206     1.37500
O683        O  0.57571559  0.38173877  0.99657203    -0.55100
O684        O  0.56815077  0.31876966  0.09428299    -0.53900
C685        C  0.54531971  0.29896362  0.42405007     0.79800
O686        O  0.53760669  0.28248694  0.05935200    -0.56300
O687        O  0.52903184  0.36293395  0.02004355    -0.54800
O688        O  0.61294957  0.27866043  0.00221295    -0.54700
O689        O  0.56940360  0.31919495  0.42683056    -0.53900
C690        C  0.51221895  0.26094999  0.21915624     0.04600
C691        C  0.98785061  0.23567694  0.21975730     0.04900
C692        C  0.97500906  0.22438400  0.26153327    -0.15600
C693        C  0.98627181  0.23810919  0.30273808     0.05000
C694        C  0.51068143  0.26334350  0.30220392     0.04900
C695        C  0.52352137  0.27465696  0.26039569    -0.15600
H696        H  0.54233121  0.29409827  0.25995532     0.07000
H697        H  0.95620894  0.20493011  0.26197471     0.07000
O698        O  0.92333574  0.11813788  0.99581793    -0.55100
C699        C  0.86199979  0.20295860  0.01403934     0.77500
O700        O  0.96605940  0.21052010  0.06090716    -0.56300
C701        C  0.95314342  0.11185953  0.00699989     0.77500
C702        C  0.95098347  0.20347966  0.42477231     0.79900
Cd703      Cd  0.92858763  0.17838564  0.01096116     1.37500
O704        O  0.86829823  0.17329100  0.02600700    -0.55100
O705        O  0.93049942  0.17957152  0.42703593    -0.53900
C706        C  0.95337521  0.20010676  0.09790920     0.79800
O707        O  0.96098291  0.21590338  0.46212998    -0.56300
O708        O  0.88607991  0.22020064  0.99953967    -0.54800
O709        O  0.97058786  0.13597044  0.02090196    -0.54700
O710        O  0.92945493  0.17969428  0.09489443    -0.53900
N711        N  0.95294362  0.01876071  0.00484900    -0.33900
N712        N  0.51870785  0.04741235  0.00359288    -0.54500
N713        N  0.54632096  0.48098974  0.00102444    -0.33900
N714        N  0.98079557  0.45224002  0.00963832    -0.54500
C715        C  0.94704874  0.05037794  0.01605162     0.29700
C716        C  0.92740081  0.99997659  0.02038132     0.29700
C717        C  0.57296606  0.49979111  0.01299848     0.29700
C718        C  0.55305377  0.44936993  0.01411591     0.29700
C719        C  0.50084082  0.07475718  0.99370085     0.38300
C720        C  0.55029677  0.05496104  0.99273573     0.38300
C721        C  0.94850119  0.44519856  0.00082346     0.38300
C722        C  0.99783158  0.42547516  0.99743903     0.38300
C723        C  0.91763595  0.05162889  0.03926002    -0.19200
C724        C  0.90531868  0.01983395  0.04219023    -0.19200
C725        C  0.59658973  0.47993331  0.03465965    -0.19200
C726        C  0.58407428  0.44813175  0.03518189    -0.19200
C727        C  0.52113567  0.09962315  0.97582890    -0.20300
C728        C  0.55245315  0.08710664  0.97528569    -0.20300
C729        C  0.94501174  0.41406489  0.98239420    -0.20300
C730        C  0.97626729  0.40161076  0.98009360    -0.20200
C731        C  0.96713902  0.07810754  0.00447521    -0.15600
C732        C  0.92229462  0.46598109  0.01181390    -0.15600
C733        C  0.53222363  0.42169498  0.00547941    -0.15600
C734        C  0.57729833  0.03387433  0.00189377    -0.15600
H735        H  0.90633092  0.07305966  0.05331881     0.17300
H736        H  0.88266420  0.01230690  0.05875073     0.17300
H737        H  0.62038155  0.48746665  0.04899006     0.17300
H738        H  0.59636133  0.42672007  0.05000347     0.17300
H739        H  0.51428062  0.12425137  0.96433784     0.15600
H740        H  0.57418637  0.10031180  0.96330798     0.15600
H741        H  0.92243331  0.40165013  0.97125856     0.15600
H742        H  0.98226075  0.37778161  0.96681049     0.15600
H743        H  0.97138224  0.01097175  0.98347463     0.28900
H744        H  0.52628201  0.48870596  0.98062595     0.28800
C745        C  0.97283937  0.22582560  0.34531014    -0.10600
C746        C  0.96255350  0.21579242  0.38153363    -0.12100
C747        C  0.97543874  0.22156567  0.17770684    -0.10600
C748        C  0.96541580  0.21121735  0.14152524    -0.12100
C749        C  0.52309814  0.27738032  0.34433913    -0.10600
C750        C  0.53312569  0.28772215  0.38054425    -0.12100
C751        C  0.52556709  0.27318901  0.17645319    -0.10600
C752        C  0.53578673  0.28295689  0.14002735    -0.12100
C753        C  0.78261434  0.46243205  0.38349256    -0.10600
C754        C  0.77304227  0.47288569  0.34651687    -0.12100
C755        C  0.77499308  0.47543286  0.17825904    -0.10600
C756        C  0.78601667  0.46636742  0.14281301    -0.12100
C757        C  0.72521411  0.02521108  0.34317028    -0.10600
C758        C  0.71609930  0.03616570  0.37864660    -0.12100
C759        C  0.71289372  0.03329968  0.13780233    -0.10600
C760        C  0.72323423  0.02378425  0.17485408    -0.12100
N761        N  0.76869545  0.20279448  0.51661494    -0.33900
N762        N  0.79750347  0.26846577  0.51802386    -0.54500
N763        N  0.73105930  0.29615811  0.02136615    -0.33900
N764        N  0.70235066  0.23058283  0.01280957    -0.54500
C765        C  0.80022024  0.19683302  0.50500169     0.29700
C766        C  0.74978583  0.17725107  0.50139603     0.29700
C767        C  0.74982743  0.32285319  0.00934951     0.29700
C768        C  0.69942426  0.30285567  0.00825598     0.29700
C769        C  0.82494498  0.25056144  0.52704117     0.38300
C770        C  0.80516954  0.30021515  0.02873047     0.38300
C771        C  0.69514388  0.19839728  0.52163333     0.38300
C772        C  0.67554083  0.24758462  0.02493267     0.38300
C773        C  0.80128413  0.16739934  0.48185150    -0.19200
C774        C  0.76946592  0.15512850  0.47935465    -0.19200
C775        C  0.72994633  0.34645690  0.98771252    -0.19200
C776        C  0.69817880  0.33388129  0.98715189    -0.19200
C777        C  0.85008750  0.27081710  0.54421840    -0.20300
C778        C  0.83762910  0.30213889  0.54524514    -0.20300
C779        C  0.66415799  0.19472412  0.03989683    -0.20300
C780        C  0.65166248  0.22596986  0.04218788    -0.20200
C781        C  0.82806391  0.21684333  0.51621440    -0.15600
C782        C  0.71585075  0.17217691  0.51043287    -0.15600
C783        C  0.67173485  0.28198127  0.01682854    -0.15600
C784        C  0.78395711  0.32720212  0.02011442    -0.15600
H785        H  0.82262375  0.15604162  0.46760891     0.17300
H786        H  0.76181118  0.13246066  0.46295296     0.17300
H787        H  0.73746065  0.37024766  0.97331092     0.17300
H788        H  0.67679535  0.34613257  0.97220880     0.17300
H789        H  0.87486684  0.26394939  0.55493213     0.15600
H790        H  0.85104482  0.32385211  0.55683424     0.15600
H791        H  0.65173454  0.17211034  0.05093181     0.15600
H792        H  0.62779262  0.23191689  0.05538856     0.15600
H793        H  0.76108752  0.22121975  0.53809206     0.28900
H794        H  0.73881288  0.27611695  0.04170342     0.28800
O795        O  0.67304458  0.13110265  0.49502107    -0.55100
C796        C  0.61157568  0.04766115  0.50158766     0.77500
O797        O  0.71269235  0.03413824  0.95897627    -0.56300
C798        C  0.70229580  0.13783828  0.50875584     0.77500
C799        C  0.70125604  0.04462042  0.59386254     0.79900
Cd800      Cd  0.67927201  0.07033784  0.50578109     1.37500
O801        O  0.61898260  0.07642323  0.51508768    -0.55100
O802        O  0.67827143  0.06530307  0.58989394    -0.53900
C803        C  0.70516362  0.04815262  0.92099690     0.79800
O804        O  0.71371132  0.03497811  0.55726268    -0.56300
O805        O  0.63529047  0.03045546  0.48889844    -0.54800
O806        O  0.71997821  0.11351555  0.52071010    -0.54700
O807        O  0.68656690  0.07290911  0.92185566    -0.53900
C808        C  0.76165448  0.48684574  0.71985439     0.05000
C809        C  0.73703920  0.01106203  0.71832681     0.04900
C810        C  0.72545448  0.02339190  0.75927789    -0.15600
C811        C  0.73785841  0.01142574  0.80166529     0.05000
C812        C  0.76166008  0.48640651  0.80320545     0.04900
C813        C  0.77357831  0.47439326  0.76224810    -0.15600
H814        H  0.79227106  0.45547143  0.76335602     0.07000
H815        H  0.70683640  0.04238633  0.75816857     0.07000
O816        O  0.82646950  0.36880660  0.50647096    -0.55100
C817        C  0.88790644  0.45211422  0.51233117     0.77500
O818        O  0.78534399  0.46363136  0.96434589    -0.56300
C819        C  0.79783136  0.36137170  0.52044571     0.77500
C820        C  0.79837471  0.45473115  0.60020676     0.79900
Cd821      Cd  0.82042191  0.42908002  0.51572464     1.37500
O822        O  0.88117617  0.42302706  0.52681406    -0.55100
O823        O  0.82324607  0.43631056  0.59914337    -0.53900
C824        C  0.79513209  0.45106767  0.92790121     0.79800
O825        O  0.78429860  0.46235777  0.56231029    -0.56300
O826        O  0.86360192  0.46959661  0.49968391    -0.54800
O827        O  0.78074032  0.38505852  0.53349638    -0.54700
O828        O  0.81584649  0.42812889  0.93212844    -0.53900
O829        O  0.63188823  0.32564419  0.52589523    -0.55100
C830        C  0.54644137  0.38782716  0.50792918     0.77500
O831        O  0.53246430  0.28858415  0.96061611    -0.56300
C832        C  0.63790875  0.29624141  0.51481534     0.77500
C833        C  0.54797254  0.29436976  0.59654019     0.79900
Cd834      Cd  0.57079728  0.32069598  0.51081109     1.37500
O835        O  0.57578342  0.38186988  0.49650531    -0.55100
O836        O  0.56817019  0.31852477  0.59454882    -0.53900
C837        C  0.54571799  0.29810528  0.92360650     0.79800
O838        O  0.53829734  0.28199963  0.55901361    -0.56300
O839        O  0.52944219  0.36312004  0.52138605    -0.54800
O840        O  0.61325081  0.27916790  0.50142640    -0.54700
O841        O  0.56998678  0.31809745  0.92654726    -0.53900
C842        C  0.51285331  0.25958679  0.71871925     0.04600
C843        C  0.98779098  0.23500430  0.71935804     0.04900
C844        C  0.97474489  0.22404013  0.76115245    -0.15600
C845        C  0.98646446  0.23743836  0.80234057     0.05000
C846        C  0.51153846  0.26201075  0.80177207     0.04900
C847        C  0.52463376  0.27294373  0.75994843    -0.15600
H848        H  0.54391813  0.29191395  0.75947278     0.07000
H849        H  0.95541704  0.20511070  0.76162037     0.07000
O850        O  0.92327097  0.11793291  0.49473962    -0.55100
C851        C  0.86170808  0.20264998  0.51362200     0.77500
O852        O  0.96563496  0.21000684  0.56071084    -0.56300
C853        C  0.95289410  0.11159817  0.50685115     0.77500
C854        C  0.95100786  0.20356116  0.92463796     0.79900
Cd855      Cd  0.92822217  0.17803442  0.51071424     1.37500
O856        O  0.86792872  0.17297537  0.52565651    -0.55100
O857        O  0.93065502  0.17955786  0.92722223    -0.53900
C858        C  0.95267328  0.19985104  0.59764449     0.79800
O859        O  0.96100525  0.21623181  0.96183220    -0.56300
O860        O  0.88580667  0.21982641  0.49904708    -0.54800
O861        O  0.97006666  0.13558054  0.52173659    -0.54700
O862        O  0.92857385  0.17964925  0.59457397    -0.53900
N863        N  0.95285472  0.01855526  0.50418042    -0.33900
N864        N  0.51862885  0.04734647  0.50329154    -0.54500
N865        N  0.54634364  0.48103973  0.50094307    -0.33900
N866        N  0.98077205  0.45215653  0.50912496    -0.54500
C867        C  0.94684254  0.05014198  0.51538808     0.29700
C868        C  0.92718108  0.99974303  0.51922930     0.29700
C869        C  0.57295460  0.49988098  0.51293799     0.29700
C870        C  0.55308017  0.44946543  0.51423666     0.29700
C871        C  0.50074371  0.07471897  0.49370020     0.38300
C872        C  0.55024787  0.05504117  0.49275939     0.38300
C873        C  0.94853345  0.44496726  0.50012902     0.38300
C874        C  0.99794179  0.42536278  0.49741017     0.38300
C875        C  0.91721279  0.05134503  0.53808765    -0.19200
C876        C  0.90487927  0.01955638  0.54069636    -0.19200
C877        C  0.59656063  0.48009219  0.53476372    -0.19200
C878        C  0.58406648  0.44829397  0.53540453    -0.19200
C879        C  0.52106161  0.09976717  0.47636133    -0.20300
C880        C  0.55240830  0.08731834  0.47580595    -0.20300
C881        C  0.94521106  0.41369948  0.48208377    -0.20300
C882        C  0.97652385  0.40131182  0.48021678    -0.20200
C883        C  0.96698183  0.07791838  0.50423491    -0.15600
C884        C  0.92221511  0.46573199  0.51068074    -0.15600
C885        C  0.53231672  0.42173684  0.50572350    -0.15600
C886        C  0.57726016  0.03396432  0.50188337    -0.15600
H887        H  0.90575919  0.07274852  0.55199714     0.17300
H888        H  0.88207666  0.01200540  0.55685136     0.17300
H889        H  0.62031453  0.48767760  0.54916400     0.17300
H890        H  0.59633820  0.42691892  0.55036542     0.17300
H891        H  0.51420142  0.12448061  0.46526771     0.15600
H892        H  0.57416805  0.10067247  0.46422111     0.15600
H893        H  0.92269959  0.40114371  0.47098579     0.15600
H894        H  0.98266193  0.37739264  0.46735732     0.15600
H895        H  0.97149217  0.01080762  0.48310246     0.28900
H896        H  0.52632720  0.48869060  0.48044224     0.28800
C897        C  0.97281820  0.22548850  0.84494142    -0.10600
C898        C  0.96248209  0.21567419  0.88124239    -0.12100
C899        C  0.97492829  0.22121527  0.67735767    -0.10600
C900        C  0.96468623  0.21096366  0.64124430    -0.12100
C901        C  0.52410804  0.27599505  0.84386628    -0.10600
C902        C  0.53394277  0.28650407  0.88007332    -0.12100
C903        C  0.52623602  0.27171939  0.67599489    -0.10600
C904        C  0.53638861  0.28176903  0.63967513    -0.12100
C905        C  0.78358207  0.46260062  0.88354814    -0.10600
C906        C  0.77404120  0.47296813  0.84652487    -0.12100
C907        C  0.77528615  0.47500880  0.67822788    -0.10600
C908        C  0.78623144  0.46595464  0.64272197    -0.12100
C909        C  0.72609841  0.02518490  0.84325640    -0.10600
C910        C  0.71676593  0.03610196  0.87863225    -0.12100
C911        C  0.71298705  0.03297898  0.63809471    -0.10600
C912        C  0.72352364  0.02342455  0.67503060    -0.12100
N913        N  0.76891900  0.70279767  0.01694627    -0.33900
N914        N  0.79753311  0.76860624  0.01807064    -0.54500
N915        N  0.73117374  0.79617865  0.52158710    -0.33900
N916        N  0.70227214  0.73069848  0.51295581    -0.54500
C917        C  0.80050211  0.69687771  0.00552511     0.29700
C918        C  0.75010721  0.67715515  0.00178170     0.29700
C919        C  0.74998549  0.82281014  0.50949199     0.29700
C920        C  0.69955900  0.80297709  0.50855748     0.29700
C921        C  0.82504028  0.75080096  0.02716271     0.38300
C922        C  0.80524677  0.80002757  0.52876714     0.38300
C923        C  0.69532562  0.69826517  0.02155438     0.38300
C924        C  0.67553906  0.74777351  0.52515076     0.38300
C925        C  0.80169818  0.66735026  0.98262058    -0.19200
C926        C  0.76991876  0.65499465  0.98003969    -0.19200
C927        C  0.73014803  0.84647470  0.48790002    -0.19200
C928        C  0.69835016  0.83400559  0.48747214    -0.19200
C929        C  0.85011284  0.77116705  0.04426758    -0.20300
C930        C  0.83754679  0.80243850  0.04522244    -0.20300
C931        C  0.66397510  0.69494309  0.54001065    -0.20300
C932        C  0.65158168  0.72623507  0.54235263    -0.20200
C933        C  0.82828043  0.71704659  0.01657354    -0.15600
C934        C  0.71610962  0.67207672  0.01046887    -0.15600
C935        C  0.67185204  0.78217465  0.51711348    -0.15600
C936        C  0.78411566  0.82706391  0.52018878    -0.15600
H937        H  0.82308931  0.65600404  0.96850568     0.17300
H938        H  0.76237675  0.63227175  0.96369657     0.17300
H939        H  0.73770931  0.87024169  0.47346786     0.17300
H940        H  0.67696189  0.84631628  0.47264099     0.17300
H941        H  0.87490559  0.76440007  0.05505367     0.15600
H942        H  0.85089661  0.82418239  0.05683260     0.15600
H943        H  0.65146984  0.67236057  0.55098426     0.15600
H944        H  0.62771617  0.73228337  0.55548707     0.15600
H945        H  0.76118987  0.72131273  0.03817637     0.28900
H946        H  0.73889342  0.77611132  0.54190945     0.28800
O947        O  0.67330296  0.63108799  0.99452598    -0.55100
C948        C  0.61161891  0.54756850  0.00138410     0.77500
O949        O  0.71299127  0.53461735  0.45914258    -0.56300
C950        C  0.70251277  0.63774996  0.00853719     0.77500
C951        C  0.70127352  0.54484319  0.09348523     0.79900
Cd952      Cd  0.67933190  0.57029784  0.00534040     1.37500
O953        O  0.61902587  0.57643367  0.01447988    -0.55100
O954        O  0.67820200  0.56541494  0.08935395    -0.53900
C955        C  0.70480270  0.54827100  0.42116325     0.79800
O956        O  0.71387735  0.53519980  0.05698497    -0.56300
O957        O  0.63533157  0.53029854  0.98885359    -0.54800
O958        O  0.72009360  0.61337424  0.02058687    -0.54700
O959        O  0.68579127  0.57269563  0.42216239    -0.53900
C960        C  0.76118860  0.98716115  0.21982959     0.05000
C961        C  0.73653758  0.51133511  0.21822374     0.04900
C962        C  0.72472534  0.52351128  0.25914511    -0.15600
C963        C  0.73697107  0.51143995  0.30157767     0.05000
C964        C  0.76078448  0.98642702  0.30317197     0.04900
C965        C  0.77291662  0.97457585  0.26224654    -0.15600
H966        H  0.79163567  0.95568048  0.26340011     0.07000
H967        H  0.70609894  0.54249748  0.25797826     0.07000
O968        O  0.82638548  0.86899284  0.00689806    -0.55100
C969        C  0.88794519  0.95243814  0.01352600     0.77500
O970        O  0.78536707  0.96385499  0.46427080    -0.56300
C971        C  0.79763738  0.86155465  0.02045355     0.77500
C972        C  0.79822628  0.95503191  0.10040747     0.79900
Cd973      Cd  0.82046813  0.92927993  0.01617040     1.37500
O974        O  0.88120156  0.92315795  0.02721785    -0.55100
O975        O  0.82298595  0.93644492  0.09955201    -0.53900
C976        C  0.79438284  0.95083891  0.42773272     0.79800
O977        O  0.78431243  0.96271252  0.06241484    -0.56300
O978        O  0.86363093  0.97011540  0.00151980    -0.54800
O979        O  0.78047616  0.88526070  0.03327761    -0.54700
O980        O  0.81458302  0.92742678  0.43175302    -0.53900
O981        O  0.63171698  0.82556480  0.02484804    -0.55100
C982        C  0.54624524  0.88770803  0.00739024     0.77500
O983        O  0.53264954  0.78884325  0.46118690    -0.56300
C984        C  0.63771140  0.79597589  0.01462930     0.77500
C985        C  0.54753054  0.79499715  0.09667878     0.79900
Cd986      Cd  0.57053749  0.82047241  0.01048299     1.37500
O987        O  0.57571549  0.88173879  0.99657338    -0.55100
O988        O  0.56814884  0.81877132  0.09428382    -0.53900
C989        C  0.54531796  0.79896464  0.42405075     0.79800
O990        O  0.53760721  0.78248645  0.05935321    -0.56300
O991        O  0.52903136  0.86293387  0.02004336    -0.54800
O992        O  0.61294943  0.77866058  0.00221327    -0.54700
O993        O  0.56940133  0.81919659  0.42683104    -0.53900
C994        C  0.51221535  0.76095334  0.21915685     0.04600
C995        C  0.98785467  0.73567239  0.21975715     0.04900
C996        C  0.97501341  0.72437902  0.26153313    -0.15600
C997        C  0.98627582  0.73810446  0.30273796     0.05000
C998        C  0.51067768  0.76334680  0.30220445     0.04900
C999        C  0.52351777  0.77466025  0.26039633    -0.15600
H1000       H  0.54232799  0.79410120  0.25995613     0.07000
H1001       H  0.95621346  0.70492496  0.26197446     0.07000
O1002       O  0.92333596  0.61813809  0.99581748    -0.55100
C1003       C  0.86199961  0.70295846  0.01403894     0.77500
O1004       O  0.96606032  0.71051939  0.06090638    -0.56300
C1005       C  0.95314357  0.61185986  0.00700007     0.77500
C1006       C  0.95098493  0.70347748  0.42477206     0.79900
Cd1007     Cd  0.92858781  0.67838566  0.01096066     1.37500
O1008       O  0.86829817  0.67329072  0.02600571    -0.55100
O1009       O  0.93050121  0.67956907  0.42703609    -0.53900
C1010       C  0.95337713  0.70010504  0.09790861     0.79800
O1011       O  0.96098326  0.71590244  0.46212942    -0.56300
O1012       O  0.88607979  0.72020079  0.99954006    -0.54800
O1013       O  0.97058783  0.63597074  0.02090262    -0.54700
O1014       O  0.92945670  0.67969271  0.09489405    -0.53900
N1015       N  0.95294351  0.51876120  0.00484903    -0.33900
N1016       N  0.51870770  0.54741224  0.00359453    -0.54500
N1017       N  0.54632076  0.98098982  0.00102352    -0.33900
N1018       N  0.98079609  0.95223950  0.00963765    -0.54500
C1019       C  0.94704886  0.55037846  0.01605190     0.29700
C1020       C  0.92740047  0.49997728  0.02038134     0.29700
C1021       C  0.57296612  0.99979120  0.01299695     0.29700
C1022       C  0.55305357  0.94937006  0.01411571     0.29700
C1023       C  0.50084063  0.57475697  0.99370194     0.38300
C1024       C  0.55029661  0.55496085  0.99273721     0.38300
C1025       C  0.94850174  0.94519808  0.00082268     0.38300
C1026       C  0.99783214  0.92547482  0.99743774     0.38300
C1027       C  0.91763608  0.55162958  0.03926032    -0.19200
C1028       C  0.90531853  0.51983477  0.04219035    -0.19200
C1029       C  0.59658979  0.97993350  0.03465826    -0.19200
C1030       C  0.58407415  0.94813200  0.03518142    -0.19200
C1031       C  0.52113544  0.59962277  0.97582945    -0.20300
C1032       C  0.55245293  0.58710626  0.97528649    -0.20300
C1033       C  0.94501233  0.91406465  0.98239266    -0.20300
C1034       C  0.97626791  0.90161059  0.98009174    -0.20200
C1035       C  0.96713927  0.57810797  0.00447555    -0.15600
C1036       C  0.92229516  0.96598040  0.01181368    -0.15600
C1037       C  0.53222331  0.92169503  0.00547985    -0.15600
C1038       C  0.57729822  0.53387426  0.00189567    -0.15600
H1039       H  0.90633124  0.57306038  0.05331930     0.17300
H1040       H  0.88266405  0.51230790  0.05875099     0.17300
H1041       H  0.62038174  0.98746685  0.04898824     0.17300
H1042       H  0.59636114  0.92672042  0.05000343     0.17300
H1043       H  0.51428034  0.62425086  0.96433790     0.15600
H1044       H  0.57418617  0.60031129  0.96330854     0.15600
H1045       H  0.92243388  0.90165003  0.97125679     0.15600
H1046       H  0.98226143  0.87778157  0.96680823     0.15600
H1047       H  0.97138195  0.51097222  0.98347472     0.28900
H1048       H  0.52628193  0.98870578  0.98062523     0.28800
C1049       C  0.97284268  0.72582146  0.34530989    -0.10600
C1050       C  0.96255591  0.71578911  0.38153330    -0.12100
C1051       C  0.97544246  0.72156169  0.17770652    -0.10600
C1052       C  0.96541892  0.71121435  0.14152468    -0.12100
C1053       C  0.52309487  0.77738299  0.34433976    -0.10600
C1054       C  0.53312313  0.78772404  0.38054494    -0.12100
C1055       C  0.52556443  0.77319150  0.17645399    -0.10600
C1056       C  0.53578500  0.78295847  0.14002827    -0.12100
C1057       C  0.78261404  0.96243227  0.38349160    -0.10600
C1058       C  0.77304195  0.97288594  0.34651592    -0.12100
C1059       C  0.77499437  0.97543375  0.17825807    -0.10600
C1060       C  0.78601815  0.96636844  0.14281208    -0.12100
C1061       C  0.72521527  0.52521151  0.34317195    -0.10600
C1062       C  0.71610014  0.53616593  0.37864821    -0.12100
C1063       C  0.71289409  0.53330087  0.13780407    -0.10600
C1064       C  0.72323480  0.52378540  0.17485572    -0.12100
N1065       N  0.76869566  0.70279466  0.51661561    -0.33900
N1066       N  0.79750365  0.76846564  0.51802512    -0.54500
N1067       N  0.73105902  0.79615812  0.02136661    -0.33900
N1068       N  0.70235028  0.73058288  0.01281022    -0.54500
C1069       C  0.80022046  0.69683311  0.50500261     0.29700
C1070       C  0.74978593  0.67725149  0.50139647     0.29700
C1071       C  0.74982714  0.82285305  0.00934956     0.29700
C1072       C  0.69942393  0.80285565  0.00825694     0.29700
C1073       C  0.82494521  0.75056135  0.52704253     0.38300
C1074       C  0.80516914  0.80021490  0.02873045     0.38300
C1075       C  0.69514397  0.69839782  0.52163366     0.38300
C1076       C  0.67554058  0.74758464  0.02493383     0.38300
C1077       C  0.80128427  0.66739950  0.48185219    -0.19200
C1078       C  0.76946598  0.65512887  0.47935510    -0.19200
C1079       C  0.72994595  0.84645676  0.98771267    -0.19200
C1080       C  0.69817837  0.83388123  0.98715266    -0.19200
C1081       C  0.85008770  0.77081707  0.54421974    -0.20300
C1082       C  0.83762921  0.80213889  0.54524619    -0.20300
C1083       C  0.66415767  0.69472413  0.03989752    -0.20300
C1084       C  0.65166227  0.72596989  0.04218910    -0.20200
C1085       C  0.82806421  0.71684326  0.51621555    -0.15600
C1086       C  0.71585083  0.67217741  0.51043324    -0.15600
C1087       C  0.67173457  0.78198128  0.01682985    -0.15600
C1088       C  0.78395686  0.82720194  0.02011410    -0.15600
H1089       H  0.82262386  0.65604169  0.46760964     0.17300
H1090       H  0.76181115  0.63246108  0.46295337     0.17300
H1091       H  0.73746024  0.87024744  0.97331078     0.17300
H1092       H  0.67679481  0.84613248  0.97220983     0.17300
H1093       H  0.87486706  0.76394943  0.55493344     0.15600
H1094       H  0.85104493  0.82385221  0.55683496     0.15600
H1095       H  0.65173418  0.67211032  0.05093229     0.15600
H1096       H  0.62779248  0.73191695  0.05539000     0.15600
H1097       H  0.76108758  0.72122008  0.53809281     0.28900
H1098       H  0.73881285  0.77611669  0.04170371     0.28800
O1099       O  0.67304469  0.63110315  0.49502142    -0.55100
C1100       C  0.61157571  0.54766207  0.50158715     0.77500
O1101       O  0.71269299  0.53413913  0.95897761    -0.56300
C1102       C  0.70229584  0.63783879  0.50875642     0.77500
C1103       C  0.70125538  0.54462067  0.59386367     0.79900
Cd1104     Cd  0.67927194  0.57033839  0.50578190     1.37500
O1105       O  0.61898252  0.57642395  0.51508803    -0.55100
O1106       O  0.67827040  0.56530291  0.58989488    -0.53900
C1107       C  0.70516393  0.54815332  0.92099821     0.79800
O1108       O  0.71371112  0.53497879  0.55726391    -0.56300
O1109       O  0.63529054  0.53045653  0.48889770    -0.54800
O1110       O  0.71997814  0.61351608  0.52071110    -0.54700
O1111       O  0.68656652  0.57290928  0.92185693    -0.53900
C1112       C  0.76165589  0.98684639  0.71985328     0.05000
C1113       C  0.73703854  0.51106213  0.71832796     0.04900
C1114       C  0.72545449  0.52339261  0.75927907    -0.15600
C1115       C  0.73785831  0.51142627  0.80166644     0.05000
C1116       C  0.76166107  0.98640682  0.80320438     0.04900
C1117       C  0.77357993  0.97439415  0.76224703    -0.15600
H1118       H  0.79227322  0.95547285  0.76335497     0.07000
H1119       H  0.70683703  0.54238764  0.75816981     0.07000
O1120       O  0.82646996  0.86880630  0.50647044    -0.55100
C1121       C  0.88790712  0.95211408  0.51232906     0.77500
O1122       O  0.78534507  0.96363156  0.96434505    -0.56300
C1123       C  0.79783175  0.86137165  0.52044519     0.77500
C1124       C  0.79837601  0.95473164  0.60020556     0.79900
Cd1125     Cd  0.82042250  0.92907996  0.51572325     1.37500
O1126       O  0.88117686  0.92302712  0.52681280    -0.55100
O1127       O  0.82324705  0.93631062  0.59914203    -0.53900
C1128       C  0.79513297  0.95106782  0.92790029     0.79800
O1129       O  0.78429997  0.96235848  0.56230913    -0.56300
O1130       O  0.86360261  0.96959619  0.49968092    -0.54800
O1131       O  0.78074080  0.88505870  0.53349534    -0.54700
O1132       O  0.81584702  0.92812871  0.93212747    -0.53900
O1133       O  0.63188790  0.82564475  0.52589481    -0.55100
C1134       C  0.54644039  0.88782691  0.50792941     0.77500
O1135       O  0.53246420  0.78858366  0.96061733    -0.56300
C1136       C  0.63790848  0.79624181  0.51481575     0.77500
C1137       C  0.54797073  0.79437123  0.59654096     0.79900
Cd1138     Cd  0.57079663  0.82069611  0.51081166     1.37500
O1139       O  0.57578227  0.88186967  0.49650473    -0.55100
O1140       O  0.56816836  0.81852626  0.59454944    -0.53900
C1141       C  0.54571696  0.79810585  0.92360752     0.79800
O1142       O  0.53829642  0.78200024  0.55901453    -0.56300
O1143       O  0.52944144  0.86311989  0.52138717    -0.54800
O1144       O  0.61325044  0.77916803  0.50142780    -0.54700
O1145       O  0.56998532  0.81809855  0.92654809    -0.53900
C1146       C  0.51284942  0.75959028  0.71871986     0.04600
C1147       C  0.98779497  0.73500102  0.71935757     0.04900
C1148       C  0.97474885  0.72403668  0.76115185    -0.15600
C1149       C  0.98646831  0.73743481  0.80234006     0.05000
C1150       C  0.51153488  0.76201389  0.80177274     0.04900
C1151       C  0.52463005  0.77294700  0.75994910    -0.15600
H1152       H  0.54391475  0.79191688  0.75947354     0.07000
H1153       H  0.95542081  0.70510744  0.76161955     0.07000
O1154       O  0.92327121  0.61793239  0.49474096    -0.55100
C1155       C  0.86170839  0.70264988  0.51362281     0.77500
O1156       O  0.96563546  0.71000680  0.56071010    -0.56300
C1157       C  0.95289430  0.61159775  0.50685285     0.77500
C1158       C  0.95100942  0.70355956  0.92463718     0.79900
Cd1159     Cd  0.92822252  0.67803395  0.51071436     1.37500
O1160       O  0.86792897  0.67297513  0.52565660    -0.55100
O1161       O  0.93065823  0.67955488  0.92722188    -0.53900
C1162       C  0.95267508  0.69984987  0.59764410     0.79800
O1163       O  0.96100432  0.71623247  0.96183105    -0.56300
O1164       O  0.88580704  0.71982637  0.49904819    -0.54800
O1165       O  0.97006689  0.63558021  0.52173793    -0.54700
O1166       O  0.92857608  0.67964751  0.59457413    -0.53900
N1167       N  0.95285454  0.51855500  0.50418277    -0.33900
N1168       N  0.51862889  0.54734721  0.50328987    -0.54500
N1169       N  0.54634309  0.98103923  0.50094411    -0.33900
N1170       N  0.98077281  0.95215672  0.50912322    -0.54500
C1171       C  0.94684260  0.55014171  0.51539051     0.29700
C1172       C  0.92718077  0.49974292  0.51923156     0.29700
C1173       C  0.57295427  0.99988022  0.51293886     0.29700
C1174       C  0.55307938  0.94946490  0.51423753     0.29700
C1175       C  0.50074375  0.57471979  0.49369887     0.38300
C1176       C  0.55024797  0.55504202  0.49275826     0.38300
C1177       C  0.94853422  0.94496734  0.50012731     0.38300
C1178       C  0.99794262  0.92536298  0.49740842     0.38300
C1179       C  0.91721287  0.55134493  0.53809011    -0.19200
C1180       C  0.90487915  0.51955636  0.54069881    -0.19200
C1181       C  0.59656020  0.98009125  0.53476436    -0.19200
C1182       C  0.58406576  0.94829316  0.53540521    -0.19200
C1183       C  0.52106170  0.59976818  0.47636067    -0.20300
C1184       C  0.55240843  0.58731938  0.47580541    -0.20300
C1185       C  0.94521193  0.91369954  0.48208209    -0.20300
C1186       C  0.97652476  0.90131198  0.48021503    -0.20200
C1187       C  0.96698199  0.57791799  0.50423721    -0.15600
C1188       C  0.92221573  0.96573200  0.51067878    -0.15600
C1189       C  0.53231581  0.92173650  0.50572398    -0.15600
C1190       C  0.57726027  0.53396514  0.50188242    -0.15600
H1191       H  0.90575941  0.57274847  0.55199965     0.17300
H1192       H  0.88207653  0.51200552  0.55685389     0.17300
H1193       H  0.62031421  0.98767648  0.54916445     0.17300
H1194       H  0.59633743  0.92691799  0.55036584     0.17300
H1195       H  0.51420153  0.62448174  0.46526759     0.15600
H1196       H  0.57416823  0.60067373  0.46422120     0.15600
H1197       H  0.92270050  0.90114369  0.47098413     0.15600
H1198       H  0.98266293  0.87739284  0.46735552     0.15600
H1199       H  0.97149198  0.51080732  0.48310465     0.28900
H1200       H  0.52632661  0.98869027  0.48044337     0.28800
C1201       C  0.97282145  0.72548534  0.84494074    -0.10600
C1202       C  0.96248458  0.71567165  0.88124160    -0.12100
C1203       C  0.97493176  0.72121271  0.67735708    -0.10600
C1204       C  0.96468900  0.71096179  0.64124372    -0.12100
C1205       C  0.52410543  0.77599721  0.84386714    -0.10600
C1206       C  0.53394102  0.78650537  0.88007428    -0.12100
C1207       C  0.52623261  0.77172245  0.67599559    -0.10600
C1208       C  0.53638585  0.78177142  0.63967587    -0.12100
C1209       C  0.78358310  0.96260105  0.88354721    -0.10600
C1210       C  0.77404229  0.97296859  0.84652388    -0.12100
C1211       C  0.77528777  0.97500959  0.67822676    -0.10600
C1212       C  0.78623301  0.96595533  0.64272085    -0.12100
C1213       C  0.72609893  0.52518592  0.84325762    -0.10600
C1214       C  0.71676655  0.53610297  0.87863354    -0.12100
C1215       C  0.71298632  0.53297923  0.63809591    -0.10600
C1216       C  0.72352301  0.52342476  0.67503176    -0.12100
loop_ 
_geom_bond_atom_site_label_1 
_geom_bond_atom_site_label_2 
_geom_bond_distance 
_geom_bond_site_symmetry_2 
_ccdc_geom_bond_type 
N1            C6   1.353       .  A
N1            C5   1.355       .  A
N1           H33   1.041       .  S
N2            C9   1.353       .  A
N2          C162   1.352       .  A
N3            C8   1.356       .  A
N3            C7   1.353       .  A
N3           H34   1.041       .  S
N4           C12   1.353       .  A
N4          C163   1.352       .  A
C5           C13   1.385   1_554  A
C5           C21   1.413       .  A
C6           C22   1.415       .  A
C6           C14   1.388   1_554  A
C7           C15   1.389       .  A
C7           C24   1.417       .  A
C8           C23   1.413       .  A
C8           C16   1.385       .  A
C9           C21   1.417       .  A
C9           C17   1.387       .  A
C10         N154   1.352       .  A
C10          C24   1.414       .  A
C10         C170   1.386       .  A
C11         N156   1.352       .  A
C11          C22   1.413       .  A
C11         C171   1.386       .  A
C12          C20   1.387       .  A
C12          C23   1.415       .  A
C13          C14   1.372       .  A
C13          H25   1.082       .  S
C14          H26   1.082       .  S
C15          C16   1.373       .  A
C15          H27   1.082       .  S
C16          H28   1.082       .  S
C17          C18   1.373       .  A
C17          H29   1.082       .  S
C18         C162   1.387       .  A
C18          H30   1.081       .  S
C19          C20   1.374       .  A
C19         C163   1.386       .  A
C19          H31   1.082       .  S
C20          H32   1.082       .  S
C21          C91   1.492       .  S
C22          C38   1.486       .  S
C23         C224   1.495       .  S
C24         C211   1.486       .  S
O35          C38   1.268   1_556  A
O35         Cd40   2.487   1_556  S
C36         C126   1.486       .  S
C36          O45   1.263   1_554  A
C36          O41   1.266       .  A
O37          C43   1.265       .  A
O37        Cd192   2.462       .  S
C38          O46   1.264       .  A
C39          O44   1.265       .  A
C39          O42   1.263       .  A
C39         C151   1.435       .  S
Cd40         O46   2.420       .  S
Cd40         O45   2.432   1_554  S
Cd40         O41   2.478       .  S
Cd40         O44   2.469       .  S
Cd40         O42   2.455       .  S
Cd40        O189   2.459   1_554  S
Cd40        O199   2.459   1_554  S
C43          O47   1.264       .  A
C43         C150   1.433       .  S
O47        Cd192   2.459       .  S
C48          C53   1.401       .  A
C48         C353   1.408       .  A
C48         C147   1.442       .  S
C49          C50   1.401       .  A
C49         C352   1.408   1_545  A
C49         C152   1.445       .  S
C50          C51   1.402       .  A
C50          H55   1.085       .  S
C51         C356   1.409   1_545  A
C51         C149   1.442       .  S
C52          C53   1.401       .  A
C52         C355   1.409       .  A
C52         C146   1.445       .  S
C53          H54   1.085       .  S
O56          C59   1.266       .  A
O56         Cd61   2.477       .  S
C57         C124   1.486       .  S
C57          O66   1.264       .  A
C57          O62   1.268       .  A
O58          C64   1.265       .  A
O58        Cd213   2.470       .  S
C59         C176   1.487       .  S
C59          O67   1.263       .  A
C60          O65   1.265       .  A
C60          O63   1.264       .  A
C60         C148   1.432       .  S
Cd61         O67   2.435       .  S
Cd61         O66   2.421       .  S
Cd61         O62   2.486       .  S
Cd61         O65   2.459       .  S
Cd61         O63   2.456       .  S
Cd61        O210   2.469   1_554  S
Cd61        O220   2.456   1_554  S
C64          O68   1.263       .  A
C64         C145   1.435       .  S
O68        Cd213   2.458       .  S
O69          C72   1.270       .  A
O69         Cd74   2.506       .  S
C70         C125   1.496       .  S
C70          O79   1.263       .  A
C70          O75   1.270   1_554  A
O71          C77   1.265       .  A
O71        Cd226   2.460       .  S
C72         C175   1.497       .  S
C72          O80   1.263       .  A
C73          O78   1.266       .  A
C73          O76   1.264       .  A
C73         C144   1.433       .  S
Cd74         O80   2.451       .  S
Cd74         O79   2.449       .  S
Cd74         O75   2.507   1_554  S
Cd74         O78   2.466       .  S
Cd74         O76   2.448       .  S
Cd74        O223   2.463   1_554  S
Cd74        O233   2.452   1_554  S
C77          O81   1.264       .  A
C77         C142   1.432       .  S
O81        Cd226   2.451       .  S
C82          C87   1.401       .  A
C82         C691   1.408   1_455  A
C82         C143   1.443       .  S
C83          C84   1.399       .  A
C83         C690   1.408       .  A
C83         C139   1.442       .  S
C84          C85   1.400       .  A
C84          H89   1.085       .  S
C85         C694   1.408       .  A
C85         C137   1.441       .  S
C86          C87   1.400       .  A
C86         C693   1.408   1_455  A
C86         C141   1.442       .  S
C87          H88   1.085       .  S
O90          C93   1.270   1_556  A
O90         Cd95   2.492   1_556  S
C91         O100   1.263   1_554  A
C91          O96   1.270       .  A
O92          C98   1.266       .  A
O92         Cd95   2.456       .  S
C93         C123   1.492       .  S
C93         O101   1.263       .  A
C94          O99   1.266       .  A
C94          O97   1.264       .  A
C94         C138   1.431       .  S
Cd95        O102   2.450       .  S
Cd95        O101   2.443       .  S
Cd95        O100   2.445   1_554  S
Cd95         O96   2.493       .  S
Cd95        O251   2.455   1_554  S
Cd95        O249   2.446   1_554  S
O97        Cd247   2.444       .  S
C98         O102   1.264       .  A
C98         C140   1.431       .  S
O99        Cd247   2.454       .  S
N103        C108   1.352   1_545  A
N103        C107   1.355       .  A
N103        H135   1.042   1_554  S
N104        C111   1.353   1_554  A
N104        C112   1.352   1_554  A
N105        C110   1.356       .  A
N105        C109   1.352       .  A
N105        H136   1.042   1_554  S
N106        C113   1.352       .  A
N106        C114   1.353   1_554  A
C107        C115   1.386       .  A
C107        C123   1.413       .  A
C108        C116   1.388   1_565  A
C108        C428   1.415       .  A
C109        C117   1.389       .  A
C109        C430   1.417       .  A
C110        C125   1.413       .  A
C110        C118   1.385       .  A
C111        C119   1.387       .  A
C111        C731   1.416   1_456  A
C112        C126   1.414   1_556  A
C112        C120   1.387       .  A
C113        C121   1.385   1_554  A
C113        C124   1.413       .  A
C114        C122   1.387       .  A
C114        C733   1.416   1_556  A
C115        C116   1.373       .  A
C115        H127   1.082       .  S
C116        H128   1.082       .  S
C117        C118   1.374       .  A
C117        H129   1.082       .  S
C118        H130   1.082       .  S
C119        C120   1.373       .  A
C119        H131   1.082       .  S
C120        H132   1.082       .  S
C121        C122   1.373       .  A
C121        H133   1.082       .  S
C122        H134   1.082       .  S
C123        C719   1.416   1_554  A
C124        C412   1.415       .  A
C125        C722   1.416   1_454  A
C126        C413   1.417   1_545  A
C137        C138   1.204       .  T
C139        C140   1.204       .  T
C141        C142   1.204       .  T
C143        C144   1.204       .  T
C145        C146   1.206       .  T
C147        C148   1.204       .  T
C149        C150   1.205       .  T
C151        C152   1.206       .  T
N153        C158   1.352       .  A
N153        C157   1.355       .  A
N153        H185   1.041       .  S
N154        C161   1.353       .  A
N155        C160   1.357       .  A
N155        C159   1.353       .  A
N155        H186   1.041       .  S
N156        C164   1.353       .  A
C157        C165   1.385       .  A
C157        C173   1.412       .  A
C158        C174   1.415       .  A
C158        C166   1.388       .  A
C159        C167   1.389   1_554  A
C159        C176   1.418       .  A
C160        C175   1.414       .  A
C160        C168   1.385   1_554  A
C161        C173   1.416       .  A
C161        C169   1.387       .  A
C162        C176   1.414       .  A
C163        C174   1.413       .  A
C164        C172   1.387       .  A
C164        C175   1.416       .  A
C165        C166   1.372       .  A
C165        H177   1.082       .  S
C166        H178   1.082       .  S
C167        C168   1.374       .  A
C167        H179   1.082       .  S
C168        H180   1.082       .  S
C169        C170   1.373       .  A
C169        H181   1.082       .  S
C170        H182   1.082       .  S
C171        C172   1.373       .  A
C171        H183   1.082       .  S
C172        H184   1.082       .  S
C173        C243   1.491       .  S
C174        C190   1.486       .  S
O187        C190   1.267       .  A
O187       Cd192   2.487       .  S
C188        C278   1.486       .  S
C188        O197   1.263       .  A
C188        O193   1.266       .  A
O189        C195   1.265       .  A
C190        O198   1.264       .  A
C191        O196   1.265       .  A
C191        O194   1.263       .  A
C191        C303   1.435       .  S
Cd192       O198   2.420       .  S
Cd192       O197   2.431       .  S
Cd192       O193   2.478       .  S
Cd192       O196   2.470       .  S
Cd192       O194   2.458       .  S
C195        O199   1.264       .  A
C195        C302   1.433       .  S
C200        C505   1.408       .  A
C200        C205   1.401       .  A
C200        C299   1.442       .  S
C201        C504   1.408   1_545  A
C201        C202   1.400       .  A
C201        C304   1.445       .  S
C202        C203   1.401       .  A
C202        H207   1.085       .  S
C203        C508   1.408   1_545  A
C203        C301   1.442       .  S
C204        C507   1.408       .  A
C204        C205   1.401       .  A
C204        C298   1.445       .  S
C205        H206   1.085       .  S
O208        C211   1.266       .  A
O208       Cd213   2.477       .  S
C209        C276   1.486       .  S
C209        O218   1.264       .  A
C209        O214   1.267       .  A
O210        C216   1.265       .  A
C211        O219   1.263       .  A
C212        O217   1.265       .  A
C212        O215   1.264       .  A
C212        C300   1.432       .  S
Cd213       O219   2.431       .  S
Cd213       O218   2.420       .  S
Cd213       O214   2.487       .  S
Cd213       O217   2.460       .  S
Cd213       O215   2.458       .  S
C216        O220   1.263       .  A
C216        C297   1.435       .  S
O221        C224   1.270       .  A
O221       Cd226   2.505       .  S
C222        C277   1.495       .  S
C222        O231   1.263       .  A
C222        O227   1.270       .  A
O223        C229   1.266       .  A
C224        O232   1.263       .  A
C225        O230   1.266       .  A
C225        O228   1.264       .  A
C225        C296   1.432       .  S
Cd226       O232   2.448       .  S
Cd226       O231   2.448       .  S
Cd226       O227   2.505       .  S
Cd226       O230   2.462       .  S
Cd226       O228   2.447       .  S
C229        O233   1.264       .  A
C229        C294   1.433       .  S
C234        C843   1.408   1_455  A
C234        C239   1.401       .  A
C234        C295   1.442       .  S
C235        C842   1.408       .  A
C235        C236   1.399       .  A
C235        C291   1.441       .  S
C236        C237   1.399       .  A
C236        H241   1.085       .  S
C237        C846   1.408       .  A
C237        C289   1.441       .  S
C238        C845   1.408   1_455  A
C238        C239   1.400       .  A
C238        C293   1.443       .  S
C239        H240   1.085       .  S
O242        C245   1.270       .  A
O242       Cd247   2.491       .  S
C243        O252   1.263       .  A
C243        O248   1.270       .  A
O244        C250   1.266       .  A
O244       Cd247   2.452       .  S
C245        C275   1.491       .  S
C245        O253   1.263       .  A
C246        O251   1.266       .  A
C246        O249   1.264       .  A
C246        C290   1.431       .  S
Cd247       O254   2.449       .  S
Cd247       O253   2.443       .  S
Cd247       O252   2.442       .  S
Cd247       O248   2.493       .  S
C250        O254   1.264       .  A
C250        C292   1.431       .  S
N255        C260   1.352   1_545  A
N255        C259   1.355       .  A
N255        H287   1.042       .  S
N256        C263   1.353       .  A
N256        C264   1.352       .  A
N257        C262   1.356       .  A
N257        C261   1.352       .  A
N257        H288   1.042       .  S
N258        C265   1.352       .  A
N258        C266   1.353       .  A
C259        C267   1.386       .  A
C259        C275   1.412       .  A
C260        C580   1.414       .  A
C260        C268   1.388   1_565  A
C261        C269   1.389       .  A
C261        C582   1.417       .  A
C262        C277   1.413       .  A
C262        C270   1.385       .  A
C263        C883   1.416   1_455  A
C263        C271   1.387       .  A
C264        C278   1.414       .  A
C264        C272   1.387       .  A
C265        C273   1.385       .  A
C265        C276   1.412       .  A
C266        C274   1.387       .  A
C266        C885   1.415       .  A
C267        C268   1.372       .  A
C267        H279   1.082       .  S
C268        H280   1.082       .  S
C269        C270   1.374       .  A
C269        H281   1.082       .  S
C270        H282   1.082       .  S
C271        C272   1.373       .  A
C271        H283   1.082       .  S
C272        H284   1.082       .  S
C273        C274   1.373       .  A
C273        H285   1.082       .  S
C274        H286   1.082       .  S
C275        C871   1.416       .  A
C276        C564   1.414       .  A
C277        C874   1.415   1_455  A
C278        C565   1.417   1_545  A
C289        C290   1.204       .  T
C291        C292   1.203       .  T
C293        C294   1.205       .  T
C295        C296   1.204       .  T
C297        C298   1.206       .  T
C299        C300   1.204       .  T
C301        C302   1.204       .  T
C303        C304   1.206       .  T
N305        C310   1.353       .  A
N305        C309   1.355       .  A
N305        H337   1.041       .  S
N306        C313   1.353       .  A
N306        C466   1.352       .  A
N307        C312   1.356       .  A
N307        C311   1.353       .  A
N307        H338   1.041       .  S
N308        C467   1.352       .  A
N308        C316   1.353       .  A
C309        C317   1.385   1_554  A
C309        C325   1.413       .  A
C310        C326   1.415       .  A
C310        C318   1.388   1_554  A
C311        C319   1.389       .  A
C311        C328   1.417       .  A
C312        C327   1.413       .  A
C312        C320   1.385       .  A
C313        C325   1.417       .  A
C313        C321   1.387       .  A
C314        N458   1.352       .  A
C314        C328   1.414       .  A
C314        C474   1.386       .  A
C315        N460   1.352       .  A
C315        C475   1.386       .  A
C315        C326   1.413       .  A
C316        C324   1.387       .  A
C316        C327   1.415       .  A
C317        C318   1.372       .  A
C317        H329   1.082       .  S
C318        H330   1.082       .  S
C319        C320   1.373       .  A
C319        H331   1.082       .  S
C320        H332   1.082       .  S
C321        C322   1.373       .  A
C321        H333   1.082       .  S
C322        C466   1.387       .  A
C322        H334   1.081       .  S
C323        C467   1.386       .  A
C323        C324   1.374       .  A
C323        H335   1.082       .  S
C324        H336   1.082       .  S
C325        C395   1.492       .  S
C326        C342   1.486       .  S
C327        C528   1.495       .  S
C328        C515   1.486       .  S
O339        C342   1.268   1_556  A
O339       Cd344   2.487   1_556  S
C340        C430   1.486       .  S
C340        O349   1.263   1_554  A
C340        O345   1.266       .  A
O341        C347   1.265       .  A
O341       Cd496   2.462       .  S
C342        O350   1.264       .  A
C343        O348   1.265       .  A
C343        O346   1.263       .  A
C343        C455   1.435       .  S
Cd344       O493   2.459   1_554  S
Cd344       O503   2.459   1_554  S
Cd344       O350   2.420       .  S
Cd344       O349   2.432   1_554  S
Cd344       O345   2.478       .  S
Cd344       O348   2.469       .  S
Cd344       O346   2.455       .  S
C347        O351   1.264       .  A
C347        C454   1.433       .  S
O351       Cd496   2.459       .  S
C352        C357   1.401       .  A
C352        C451   1.442       .  S
C353        C354   1.401       .  A
C353        C456   1.445       .  S
C354        C355   1.402       .  A
C354        H359   1.085       .  S
C355        C453   1.442       .  S
C356        C357   1.401       .  A
C356        C450   1.445       .  S
C357        H358   1.085       .  S
O360        C363   1.266       .  A
O360       Cd365   2.477       .  S
C361        C428   1.486       .  S
C361        O370   1.264       .  A
C361        O366   1.268       .  A
O362        C368   1.265       .  A
O362       Cd517   2.470       .  S
C363        C480   1.487       .  S
C363        O371   1.263       .  A
C364        O369   1.265       .  A
C364        O367   1.264       .  A
C364        C452   1.432       .  S
Cd365       O514   2.469   1_554  S
Cd365       O524   2.456   1_554  S
Cd365       O371   2.435       .  S
Cd365       O370   2.421       .  S
Cd365       O366   2.486       .  S
Cd365       O369   2.459       .  S
Cd365       O367   2.456       .  S
C368        O372   1.263       .  A
C368        C449   1.435       .  S
O372       Cd517   2.458       .  S
O373        C376   1.270       .  A
O373       Cd378   2.506       .  S
C374        C429   1.496       .  S
C374        O383   1.263       .  A
C374        O379   1.270   1_554  A
O375        C381   1.265       .  A
O375       Cd530   2.460       .  S
C376        C479   1.497       .  S
C376        O384   1.263       .  A
C377        O382   1.266       .  A
C377        O380   1.264       .  A
C377        C448   1.433       .  S
Cd378       O527   2.463   1_554  S
Cd378       O537   2.452   1_554  S
Cd378       O384   2.451       .  S
Cd378       O383   2.449       .  S
Cd378       O379   2.507   1_554  S
Cd378       O382   2.466       .  S
Cd378       O380   2.448       .  S
C381        O385   1.264       .  A
C381        C446   1.432       .  S
O385       Cd530   2.451       .  S
C386        C995   1.408   1_455  A
C386        C391   1.401       .  A
C386        C447   1.443       .  S
C387        C994   1.408       .  A
C387        C388   1.399       .  A
C387        C443   1.442       .  S
C388        C389   1.400       .  A
C388        H393   1.085       .  S
C389        C998   1.408       .  A
C389        C441   1.441       .  S
C390        C997   1.408   1_455  A
C390        C391   1.400       .  A
C390        C445   1.442       .  S
C391        H392   1.085       .  S
O394        C397   1.270   1_556  A
O394       Cd399   2.492   1_556  S
C395        O404   1.263   1_554  A
C395        O400   1.270       .  A
O396        C402   1.266       .  A
O396       Cd399   2.456       .  S
C397        C427   1.492       .  S
C397        O405   1.263       .  A
C398        O403   1.266       .  A
C398        O401   1.264       .  A
C398        C442   1.431       .  S
Cd399       O406   2.450       .  S
Cd399       O405   2.443       .  S
Cd399       O404   2.445   1_554  S
Cd399       O400   2.493       .  S
Cd399       O555   2.455   1_554  S
Cd399       O553   2.446   1_554  S
O401       Cd551   2.444       .  S
C402        O406   1.264       .  A
C402        C444   1.431       .  S
O403       Cd551   2.454       .  S
N407        C412   1.352       .  A
N407        C411   1.355       .  A
N407        H439   1.042   1_554  S
N408        C415   1.353   1_554  A
N408        C416   1.352   1_554  A
N409        C414   1.356       .  A
N409        C413   1.352       .  A
N409        H440   1.042   1_554  S
N410        C417   1.352       .  A
N410        C418   1.353   1_554  A
C411        C419   1.386       .  A
C411        C427   1.413       .  A
C412        C420   1.388       .  A
C413        C421   1.389       .  A
C414        C429   1.413       .  A
C414        C422   1.385       .  A
C415       C1035   1.416   1_456  A
C415        C423   1.387       .  A
C416        C430   1.414   1_556  A
C416        C424   1.387       .  A
C417        C425   1.385   1_554  A
C417        C428   1.413       .  A
C418        C426   1.387       .  A
C418       C1037   1.416   1_556  A
C419        C420   1.373       .  A
C419        H431   1.082       .  S
C420        H432   1.082       .  S
C421        C422   1.374       .  A
C421        H433   1.082       .  S
C422        H434   1.082       .  S
C423        C424   1.373       .  A
C423        H435   1.082       .  S
C424        H436   1.082       .  S
C425        C426   1.373       .  A
C425        H437   1.082       .  S
C426        H438   1.082       .  S
C427       C1023   1.416   1_554  A
C429       C1026   1.416   1_454  A
C441        C442   1.204       .  T
C443        C444   1.204       .  T
C445        C446   1.204       .  T
C447        C448   1.204       .  T
C449        C450   1.206       .  T
C451        C452   1.204       .  T
C453        C454   1.205       .  T
C455        C456   1.206       .  T
N457        C462   1.352       .  A
N457        C461   1.355       .  A
N457        H489   1.041       .  S
N458        C465   1.353       .  A
N459        C464   1.357       .  A
N459        C463   1.353       .  A
N459        H490   1.041       .  S
N460        C468   1.353       .  A
C461        C469   1.385       .  A
C461        C477   1.412       .  A
C462        C478   1.415       .  A
C462        C470   1.388       .  A
C463        C471   1.389   1_554  A
C463        C480   1.418       .  A
C464        C479   1.414       .  A
C464        C472   1.385   1_554  A
C465        C477   1.416       .  A
C465        C473   1.387       .  A
C466        C480   1.414       .  A
C467        C478   1.413       .  A
C468        C476   1.387       .  A
C468        C479   1.416       .  A
C469        C470   1.372       .  A
C469        H481   1.082       .  S
C470        H482   1.082       .  S
C471        C472   1.374       .  A
C471        H483   1.082       .  S
C472        H484   1.082       .  S
C473        C474   1.373       .  A
C473        H485   1.082       .  S
C474        H486   1.082       .  S
C475        C476   1.373       .  A
C475        H487   1.082       .  S
C476        H488   1.082       .  S
C477        C547   1.491       .  S
C478        C494   1.486       .  S
O491        C494   1.267       .  A
O491       Cd496   2.487       .  S
C492        C582   1.486       .  S
C492        O501   1.263       .  A
C492        O497   1.266       .  A
O493        C499   1.265       .  A
C494        O502   1.264       .  A
C495        O500   1.265       .  A
C495        O498   1.263       .  A
C495        C607   1.435       .  S
Cd496       O502   2.420       .  S
Cd496       O501   2.431       .  S
Cd496       O497   2.478       .  S
Cd496       O500   2.470       .  S
Cd496       O498   2.458       .  S
C499        O503   1.264       .  A
C499        C606   1.433       .  S
C504        C509   1.401       .  A
C504        C603   1.442       .  S
C505        C506   1.400       .  A
C505        C608   1.445       .  S
C506        C507   1.401       .  A
C506        H511   1.085       .  S
C507        C605   1.442       .  S
C508        C509   1.401       .  A
C508        C602   1.445       .  S
C509        H510   1.085       .  S
O512        C515   1.266       .  A
O512       Cd517   2.477       .  S
C513        C580   1.486       .  S
C513        O522   1.264       .  A
C513        O518   1.267       .  A
O514        C520   1.265       .  A
C515        O523   1.263       .  A
C516        O521   1.265       .  A
C516        O519   1.264       .  A
C516        C604   1.432       .  S
Cd517       O523   2.431       .  S
Cd517       O522   2.420       .  S
Cd517       O518   2.487       .  S
Cd517       O521   2.460       .  S
Cd517       O519   2.458       .  S
C520        O524   1.263       .  A
C520        C601   1.435       .  S
O525        C528   1.270       .  A
O525       Cd530   2.505       .  S
C526        C581   1.495       .  S
C526        O535   1.263       .  A
C526        O531   1.270       .  A
O527        C533   1.266       .  A
C528        O536   1.263       .  A
C529        O534   1.266       .  A
C529        O532   1.264       .  A
C529        C600   1.432       .  S
Cd530       O536   2.448       .  S
Cd530       O535   2.448       .  S
Cd530       O531   2.505       .  S
Cd530       O534   2.462       .  S
Cd530       O532   2.447       .  S
C533        O537   1.264       .  A
C533        C598   1.433       .  S
C538       C1147   1.408   1_455  A
C538        C543   1.401       .  A
C538        C599   1.442       .  S
C539       C1146   1.408       .  A
C539        C540   1.399       .  A
C539        C595   1.441       .  S
C540        C541   1.399       .  A
C540        H545   1.085       .  S
C541       C1150   1.408       .  A
C541        C593   1.441       .  S
C542       C1149   1.408   1_455  A
C542        C543   1.400       .  A
C542        C597   1.443       .  S
C543        H544   1.085       .  S
O546        C549   1.270       .  A
O546       Cd551   2.491       .  S
C547        O556   1.263       .  A
C547        O552   1.270       .  A
O548        C554   1.266       .  A
O548       Cd551   2.452       .  S
C549        C579   1.491       .  S
C549        O557   1.263       .  A
C550        O555   1.266       .  A
C550        O553   1.264       .  A
C550        C594   1.431       .  S
Cd551       O558   2.449       .  S
Cd551       O557   2.443       .  S
Cd551       O556   2.442       .  S
Cd551       O552   2.492       .  S
C554        O558   1.264       .  A
C554        C596   1.431       .  S
N559        C564   1.352       .  A
N559        C563   1.355       .  A
N559        H591   1.042       .  S
N560        C567   1.353       .  A
N560        C568   1.352       .  A
N561        C566   1.356       .  A
N561        C565   1.352       .  A
N561        H592   1.042       .  S
N562        C569   1.352       .  A
N562        C570   1.353       .  A
C563        C571   1.386       .  A
C563        C579   1.412       .  A
C564        C572   1.388       .  A
C565        C573   1.389       .  A
C566        C581   1.413       .  A
C566        C574   1.385       .  A
C567       C1187   1.416   1_455  A
C567        C575   1.387       .  A
C568        C582   1.414       .  A
C568        C576   1.387       .  A
C569        C577   1.385       .  A
C569        C580   1.412       .  A
C570        C578   1.387       .  A
C570       C1189   1.415       .  A
C571        C572   1.372       .  A
C571        H583   1.082       .  S
C572        H584   1.082       .  S
C573        C574   1.374       .  A
C573        H585   1.082       .  S
C574        H586   1.082       .  S
C575        C576   1.373       .  A
C575        H587   1.082       .  S
C576        H588   1.082       .  S
C577        C578   1.373       .  A
C577        H589   1.082       .  S
C578        H590   1.082       .  S
C579       C1175   1.416       .  A
C581       C1178   1.415   1_455  A
C593        C594   1.204       .  T
C595        C596   1.203       .  T
C597        C598   1.205       .  T
C599        C600   1.204       .  T
C601        C602   1.206       .  T
C603        C604   1.204       .  T
C605        C606   1.204       .  T
C607        C608   1.206       .  T
N609        C614   1.353       .  A
N609        C613   1.355       .  A
N609        H641   1.041       .  S
N610        C617   1.353       .  A
N610        C770   1.352       .  A
N611        C616   1.356       .  A
N611        C615   1.353       .  A
N611        H642   1.041       .  S
N612        C771   1.352       .  A
N612        C620   1.353       .  A
C613        C621   1.385   1_554  A
C613        C629   1.413       .  A
C614        C630   1.415       .  A
C614        C622   1.388   1_554  A
C615        C623   1.389       .  A
C615        C632   1.417       .  A
C616        C631   1.413       .  A
C616        C624   1.385       .  A
C617        C629   1.417       .  A
C617        C625   1.387       .  A
C618        N762   1.352       .  A
C618        C632   1.414       .  A
C618        C778   1.386       .  A
C619        N764   1.352       .  A
C619        C779   1.386       .  A
C619        C630   1.413       .  A
C620        C628   1.387       .  A
C620        C631   1.415       .  A
C621        C622   1.372       .  A
C621        H633   1.082       .  S
C622        H634   1.082       .  S
C623        C624   1.373       .  A
C623        H635   1.082       .  S
C624        H636   1.082       .  S
C625        C626   1.373       .  A
C625        H637   1.082       .  S
C626        C770   1.387       .  A
C626        H638   1.081       .  S
C627        C771   1.386       .  A
C627        C628   1.374       .  A
C627        H639   1.082       .  S
C628        H640   1.082       .  S
C629        C699   1.492       .  S
C630        C646   1.487       .  S
C631        C832   1.495       .  S
C632        C819   1.486       .  S
O643        C646   1.268   1_556  A
O643       Cd648   2.487   1_556  S
C644        C734   1.486       .  S
C644        O653   1.263   1_554  A
C644        O649   1.266       .  A
O645        C651   1.265       .  A
O645       Cd800   2.462       .  S
C646        O654   1.264       .  A
C647        O652   1.265       .  A
C647        O650   1.263       .  A
C647        C759   1.435       .  S
Cd648       O797   2.459   1_554  S
Cd648       O807   2.459   1_554  S
Cd648       O654   2.420       .  S
Cd648       O653   2.432   1_554  S
Cd648       O649   2.478       .  S
Cd648       O652   2.469       .  S
Cd648       O650   2.455       .  S
C651        O655   1.264       .  A
C651        C758   1.433       .  S
O655       Cd800   2.459       .  S
C656        C961   1.408       .  A
C656        C661   1.401       .  A
C656        C755   1.442       .  S
C657        C960   1.408   1_545  A
C657        C658   1.401       .  A
C657        C760   1.445       .  S
C658        C659   1.402       .  A
C658        H663   1.085       .  S
C659        C964   1.409   1_545  A
C659        C757   1.442       .  S
C660        C963   1.409       .  A
C660        C661   1.401       .  A
C660        C754   1.445       .  S
C661        H662   1.085       .  S
O664        C667   1.266       .  A
O664       Cd669   2.477       .  S
C665        C732   1.486       .  S
C665        O674   1.264       .  A
C665        O670   1.268       .  A
O666        C672   1.265       .  A
O666       Cd821   2.470       .  S
C667        C784   1.487       .  S
C667        O675   1.263       .  A
C668        O673   1.265       .  A
C668        O671   1.264       .  A
C668        C756   1.432       .  S
Cd669       O818   2.469   1_554  S
Cd669       O828   2.456   1_554  S
Cd669       O675   2.435       .  S
Cd669       O674   2.421       .  S
Cd669       O670   2.486       .  S
Cd669       O673   2.459       .  S
Cd669       O671   2.456       .  S
C672        O676   1.263       .  A
C672        C753   1.435       .  S
O676       Cd821   2.458       .  S
O677        C680   1.270       .  A
O677       Cd682   2.506       .  S
C678        C733   1.496       .  S
C678        O687   1.263       .  A
C678        O683   1.270   1_554  A
O679        C685   1.265       .  A
O679       Cd834   2.460       .  S
C680        C783   1.497       .  S
C680        O688   1.263       .  A
C681        O686   1.266       .  A
C681        O684   1.264       .  A
C681        C752   1.433       .  S
Cd682       O831   2.463   1_554  S
Cd682       O841   2.452   1_554  S
Cd682       O688   2.451       .  S
Cd682       O687   2.449       .  S
Cd682       O683   2.507   1_554  S
Cd682       O686   2.466       .  S
Cd682       O684   2.448       .  S
C685        O689   1.264       .  A
C685        C750   1.432       .  S
O689       Cd834   2.451       .  S
C690        C695   1.401       .  A
C690        C751   1.443       .  S
C691        C692   1.399       .  A
C691        C747   1.442       .  S
C692        C693   1.400       .  A
C692        H697   1.085       .  S
C693        C745   1.441       .  S
C694        C695   1.400       .  A
C694        C749   1.442       .  S
C695        H696   1.085       .  S
O698        C701   1.270   1_556  A
O698       Cd703   2.492   1_556  S
C699        O708   1.263   1_554  A
C699        O704   1.270       .  A
O700        C706   1.266       .  A
O700       Cd703   2.456       .  S
C701        C731   1.492       .  S
C701        O709   1.263       .  A
C702        O707   1.266       .  A
C702        O705   1.264       .  A
C702        C746   1.431       .  S
Cd703       O710   2.450       .  S
Cd703       O709   2.443       .  S
Cd703       O708   2.445   1_554  S
Cd703       O704   2.493       .  S
Cd703       O859   2.455   1_554  S
Cd703       O857   2.446   1_554  S
O705       Cd855   2.444       .  S
C706        O710   1.264       .  A
C706        C748   1.431       .  S
O707       Cd855   2.454       .  S
N711        C716   1.352   1_545  A
N711        C715   1.355       .  A
N711        H743   1.042   1_554  S
N712        C719   1.353   1_554  A
N712        C720   1.352   1_554  A
N713        C718   1.356       .  A
N713        C717   1.352       .  A
N713        H744   1.042   1_554  S
N714        C721   1.352       .  A
N714        C722   1.353   1_554  A
C715        C723   1.386       .  A
C715        C731   1.413       .  A
C716       C1036   1.415       .  A
C716        C724   1.388   1_565  A
C717        C725   1.389       .  A
C717       C1038   1.417       .  A
C718        C733   1.413       .  A
C718        C726   1.385       .  A
C719        C727   1.387       .  A
C720        C734   1.414   1_556  A
C720        C728   1.387       .  A
C721        C729   1.385   1_554  A
C721        C732   1.413       .  A
C722        C730   1.387       .  A
C723        C724   1.373       .  A
C723        H735   1.082       .  S
C724        H736   1.082       .  S
C725        C726   1.374       .  A
C725        H737   1.082       .  S
C726        H738   1.082       .  S
C727        C728   1.373       .  A
C727        H739   1.082       .  S
C728        H740   1.082       .  S
C729        C730   1.373       .  A
C729        H741   1.082       .  S
C730        H742   1.082       .  S
C732       C1020   1.415       .  A
C734       C1021   1.417   1_545  A
C745        C746   1.204       .  T
C747        C748   1.204       .  T
C749        C750   1.204       .  T
C751        C752   1.204       .  T
C753        C754   1.206       .  T
C755        C756   1.204       .  T
C757        C758   1.205       .  T
C759        C760   1.206       .  T
N761        C766   1.352       .  A
N761        C765   1.355       .  A
N761        H793   1.041       .  S
N762        C769   1.353       .  A
N763        C768   1.357       .  A
N763        C767   1.353       .  A
N763        H794   1.041       .  S
N764        C772   1.353       .  A
C765        C773   1.385       .  A
C765        C781   1.412       .  A
C766        C782   1.415       .  A
C766        C774   1.388       .  A
C767        C775   1.389   1_554  A
C767        C784   1.418       .  A
C768        C783   1.414       .  A
C768        C776   1.385   1_554  A
C769        C781   1.416       .  A
C769        C777   1.387       .  A
C770        C784   1.414       .  A
C771        C782   1.413       .  A
C772        C780   1.387       .  A
C772        C783   1.416       .  A
C773        C774   1.372       .  A
C773        H785   1.082       .  S
C774        H786   1.082       .  S
C775        C776   1.374       .  A
C775        H787   1.082       .  S
C776        H788   1.082       .  S
C777        C778   1.373       .  A
C777        H789   1.082       .  S
C778        H790   1.082       .  S
C779        C780   1.373       .  A
C779        H791   1.082       .  S
C780        H792   1.082       .  S
C781        C851   1.491       .  S
C782        C798   1.486       .  S
O795        C798   1.267       .  A
O795       Cd800   2.487       .  S
C796        C886   1.486       .  S
C796        O805   1.263       .  A
C796        O801   1.266       .  A
O797        C803   1.265       .  A
C798        O806   1.264       .  A
C799        O804   1.265       .  A
C799        O802   1.263       .  A
C799        C911   1.435       .  S
Cd800       O806   2.420       .  S
Cd800       O805   2.431       .  S
Cd800       O801   2.478       .  S
Cd800       O804   2.470       .  S
Cd800       O802   2.458       .  S
C803        O807   1.264       .  A
C803        C910   1.433       .  S
C808       C1113   1.408       .  A
C808        C813   1.401       .  A
C808        C907   1.442       .  S
C809       C1112   1.408   1_545  A
C809        C810   1.400       .  A
C809        C912   1.445       .  S
C810        C811   1.401       .  A
C810        H815   1.085       .  S
C811       C1116   1.408   1_545  A
C811        C909   1.442       .  S
C812       C1115   1.408       .  A
C812        C813   1.401       .  A
C812        C906   1.445       .  S
C813        H814   1.085       .  S
O816        C819   1.266       .  A
O816       Cd821   2.477       .  S
C817        C884   1.486       .  S
C817        O826   1.264       .  A
C817        O822   1.267       .  A
O818        C824   1.265       .  A
C819        O827   1.263       .  A
C820        O825   1.265       .  A
C820        O823   1.264       .  A
C820        C908   1.432       .  S
Cd821       O827   2.431       .  S
Cd821       O826   2.420       .  S
Cd821       O822   2.487       .  S
Cd821       O825   2.460       .  S
Cd821       O823   2.458       .  S
C824        O828   1.263       .  A
C824        C905   1.435       .  S
O829        C832   1.270       .  A
O829       Cd834   2.505       .  S
C830        C885   1.495       .  S
C830        O839   1.263       .  A
C830        O835   1.270       .  A
O831        C837   1.266       .  A
C832        O840   1.263       .  A
C833        O838   1.266       .  A
C833        O836   1.264       .  A
C833        C904   1.432       .  S
Cd834       O840   2.448       .  S
Cd834       O839   2.448       .  S
Cd834       O835   2.505       .  S
Cd834       O838   2.462       .  S
Cd834       O836   2.447       .  S
C837        O841   1.264       .  A
C837        C902   1.433       .  S
C842        C847   1.401       .  A
C842        C903   1.442       .  S
C843        C844   1.399       .  A
C843        C899   1.441       .  S
C844        C845   1.399       .  A
C844        H849   1.085       .  S
C845        C897   1.441       .  S
C846        C847   1.400       .  A
C846        C901   1.443       .  S
C847        H848   1.085       .  S
O850        C853   1.270       .  A
O850       Cd855   2.491       .  S
C851        O860   1.263       .  A
C851        O856   1.270       .  A
O852        C858   1.266       .  A
O852       Cd855   2.452       .  S
C853        C883   1.491       .  S
C853        O861   1.263       .  A
C854        O859   1.266       .  A
C854        O857   1.264       .  A
C854        C898   1.431       .  S
Cd855       O862   2.449       .  S
Cd855       O861   2.443       .  S
Cd855       O860   2.442       .  S
Cd855       O856   2.492       .  S
C858        O862   1.264       .  A
C858        C900   1.431       .  S
N863        C868   1.352   1_545  A
N863        C867   1.355       .  A
N863        H895   1.042       .  S
N864        C871   1.353       .  A
N864        C872   1.352       .  A
N865        C870   1.356       .  A
N865        C869   1.352       .  A
N865        H896   1.042       .  S
N866        C873   1.352       .  A
N866        C874   1.353       .  A
C867        C875   1.386       .  A
C867        C883   1.412       .  A
C868       C1188   1.414       .  A
C868        C876   1.388   1_565  A
C869        C877   1.389       .  A
C869       C1190   1.417       .  A
C870        C885   1.413       .  A
C870        C878   1.385       .  A
C871        C879   1.387       .  A
C872        C886   1.414       .  A
C872        C880   1.387       .  A
C873        C881   1.385       .  A
C873        C884   1.412       .  A
C874        C882   1.387       .  A
C875        C876   1.372       .  A
C875        H887   1.082       .  S
C876        H888   1.082       .  S
C877        C878   1.374       .  A
C877        H889   1.082       .  S
C878        H890   1.082       .  S
C879        C880   1.373       .  A
C879        H891   1.082       .  S
C880        H892   1.082       .  S
C881        C882   1.373       .  A
C881        H893   1.082       .  S
C882        H894   1.082       .  S
C884       C1172   1.414       .  A
C886       C1173   1.417   1_545  A
C897        C898   1.204       .  T
C899        C900   1.203       .  T
C901        C902   1.205       .  T
C903        C904   1.204       .  T
C905        C906   1.206       .  T
C907        C908   1.204       .  T
C909        C910   1.204       .  T
C911        C912   1.206       .  T
N913        C918   1.353       .  A
N913        C917   1.355       .  A
N913        H945   1.041       .  S
N914        C921   1.353       .  A
N914       C1074   1.352       .  A
N915        C920   1.356       .  A
N915        C919   1.353       .  A
N915        H946   1.041       .  S
N916       C1075   1.352       .  A
N916        C924   1.353       .  A
C917        C925   1.385   1_554  A
C917        C933   1.413       .  A
C918        C934   1.415       .  A
C918        C926   1.388   1_554  A
C919        C927   1.389       .  A
C919        C936   1.417       .  A
C920        C935   1.413       .  A
C920        C928   1.385       .  A
C921        C933   1.417       .  A
C921        C929   1.387       .  A
C922       N1066   1.352       .  A
C922        C936   1.414       .  A
C922       C1082   1.386       .  A
C923       N1068   1.352       .  A
C923       C1083   1.386       .  A
C923        C934   1.413       .  A
C924        C932   1.387       .  A
C924        C935   1.415       .  A
C925        C926   1.372       .  A
C925        H937   1.082       .  S
C926        H938   1.082       .  S
C927        C928   1.373       .  A
C927        H939   1.082       .  S
C928        H940   1.082       .  S
C929        C930   1.373       .  A
C929        H941   1.082       .  S
C930       C1074   1.387       .  A
C930        H942   1.081       .  S
C931       C1075   1.386       .  A
C931        C932   1.374       .  A
C931        H943   1.082       .  S
C932        H944   1.082       .  S
C933       C1003   1.492       .  S
C934        C950   1.486       .  S
C935       C1136   1.495       .  S
C936       C1123   1.486       .  S
O947        C950   1.268   1_556  A
O947       Cd952   2.487   1_556  S
C948       C1038   1.486       .  S
C948        O957   1.263   1_554  A
C948        O953   1.266       .  A
O949        C955   1.265       .  A
O949      Cd1104   2.462       .  S
C950        O958   1.264       .  A
C951        O956   1.265       .  A
C951        O954   1.263       .  A
C951       C1063   1.435       .  S
Cd952      O1101   2.459   1_554  S
Cd952      O1111   2.459   1_554  S
Cd952       O958   2.420       .  S
Cd952       O957   2.432   1_554  S
Cd952       O953   2.478       .  S
Cd952       O956   2.469       .  S
Cd952       O954   2.455       .  S
C955        O959   1.264       .  A
C955       C1062   1.433       .  S
O959      Cd1104   2.459       .  S
C960        C965   1.401       .  A
C960       C1059   1.442       .  S
C961        C962   1.401       .  A
C961       C1064   1.445       .  S
C962        C963   1.402       .  A
C962        H967   1.085       .  S
C963       C1061   1.442       .  S
C964        C965   1.401       .  A
C964       C1058   1.445       .  S
C965        H966   1.085       .  S
O968        C971   1.266       .  A
O968       Cd973   2.477       .  S
C969       C1036   1.486       .  S
C969        O978   1.264       .  A
C969        O974   1.268       .  A
O970        C976   1.265       .  A
O970      Cd1125   2.470       .  S
C971       C1088   1.487       .  S
C971        O979   1.263       .  A
C972        O977   1.265       .  A
C972        O975   1.264       .  A
C972       C1060   1.432       .  S
Cd973      O1122   2.469   1_554  S
Cd973      O1132   2.456   1_554  S
Cd973       O979   2.435       .  S
Cd973       O978   2.421       .  S
Cd973       O974   2.486       .  S
Cd973       O977   2.459       .  S
Cd973       O975   2.456       .  S
C976        O980   1.263       .  A
C976       C1057   1.435       .  S
O980      Cd1125   2.458       .  S
O981        C984   1.270       .  A
O981       Cd986   2.506       .  S
C982       C1037   1.496       .  S
C982        O991   1.263       .  A
C982        O987   1.270   1_554  A
O983        C989   1.265       .  A
O983      Cd1138   2.460       .  S
C984       C1087   1.497       .  S
C984        O992   1.263       .  A
C985        O990   1.266       .  A
C985        O988   1.264       .  A
C985       C1056   1.433       .  S
Cd986      O1135   2.463   1_554  S
Cd986      O1145   2.452   1_554  S
Cd986       O992   2.451       .  S
Cd986       O991   2.449       .  S
Cd986       O987   2.507   1_554  S
Cd986       O990   2.466       .  S
Cd986       O988   2.448       .  S
C989        O993   1.264       .  A
C989       C1054   1.432       .  S
O993      Cd1138   2.451       .  S
C994        C999   1.401       .  A
C994       C1055   1.443       .  S
C995        C996   1.399       .  A
C995       C1051   1.442       .  S
C996        C997   1.400       .  A
C996       H1001   1.085       .  S
C997       C1049   1.441       .  S
C998        C999   1.400       .  A
C998       C1053   1.442       .  S
C999       H1000   1.085       .  S
O1002      C1005   1.270   1_556  A
O1002     Cd1007   2.492   1_556  S
C1003      O1012   1.263   1_554  A
C1003      O1008   1.270       .  A
O1004      C1010   1.266       .  A
O1004     Cd1007   2.456       .  S
C1005      C1035   1.492       .  S
C1005      O1013   1.263       .  A
C1006      O1011   1.266       .  A
C1006      O1009   1.264       .  A
C1006      C1050   1.431       .  S
Cd1007     O1014   2.450       .  S
Cd1007     O1013   2.443       .  S
Cd1007     O1012   2.445   1_554  S
Cd1007     O1008   2.493       .  S
Cd1007     O1163   2.455   1_554  S
Cd1007     O1161   2.446   1_554  S
O1009     Cd1159   2.444       .  S
C1010      O1014   1.264       .  A
C1010      C1052   1.431       .  S
O1011     Cd1159   2.454       .  S
N1015      C1020   1.352       .  A
N1015      C1019   1.355       .  A
N1015      H1047   1.042   1_554  S
N1016      C1023   1.353   1_554  A
N1016      C1024   1.352   1_554  A
N1017      C1022   1.356       .  A
N1017      C1021   1.352       .  A
N1017      H1048   1.042   1_554  S
N1018      C1025   1.352       .  A
N1018      C1026   1.353   1_554  A
C1019      C1027   1.386       .  A
C1019      C1035   1.413       .  A
C1020      C1028   1.388       .  A
C1021      C1029   1.389       .  A
C1022      C1037   1.413       .  A
C1022      C1030   1.385       .  A
C1023      C1031   1.387       .  A
C1024      C1038   1.414   1_556  A
C1024      C1032   1.387       .  A
C1025      C1033   1.385   1_554  A
C1025      C1036   1.413       .  A
C1026      C1034   1.387       .  A
C1027      C1028   1.373       .  A
C1027      H1039   1.082       .  S
C1028      H1040   1.082       .  S
C1029      C1030   1.374       .  A
C1029      H1041   1.082       .  S
C1030      H1042   1.082       .  S
C1031      C1032   1.373       .  A
C1031      H1043   1.082       .  S
C1032      H1044   1.082       .  S
C1033      C1034   1.373       .  A
C1033      H1045   1.082       .  S
C1034      H1046   1.082       .  S
C1049      C1050   1.204       .  T
C1051      C1052   1.204       .  T
C1053      C1054   1.204       .  T
C1055      C1056   1.204       .  T
C1057      C1058   1.206       .  T
C1059      C1060   1.204       .  T
C1061      C1062   1.205       .  T
C1063      C1064   1.206       .  T
N1065      C1070   1.352       .  A
N1065      C1069   1.355       .  A
N1065      H1097   1.041       .  S
N1066      C1073   1.353       .  A
N1067      C1072   1.357       .  A
N1067      C1071   1.353       .  A
N1067      H1098   1.041       .  S
N1068      C1076   1.353       .  A
C1069      C1077   1.385       .  A
C1069      C1085   1.412       .  A
C1070      C1086   1.415       .  A
C1070      C1078   1.388       .  A
C1071      C1079   1.389   1_554  A
C1071      C1088   1.418       .  A
C1072      C1087   1.414       .  A
C1072      C1080   1.385   1_554  A
C1073      C1085   1.416       .  A
C1073      C1081   1.387       .  A
C1074      C1088   1.414       .  A
C1075      C1086   1.413       .  A
C1076      C1084   1.387       .  A
C1076      C1087   1.416       .  A
C1077      C1078   1.372       .  A
C1077      H1089   1.082       .  S
C1078      H1090   1.082       .  S
C1079      C1080   1.374       .  A
C1079      H1091   1.082       .  S
C1080      H1092   1.082       .  S
C1081      C1082   1.373       .  A
C1081      H1093   1.082       .  S
C1082      H1094   1.082       .  S
C1083      C1084   1.373       .  A
C1083      H1095   1.082       .  S
C1084      H1096   1.082       .  S
C1085      C1155   1.491       .  S
C1086      C1102   1.486       .  S
O1099      C1102   1.267       .  A
O1099     Cd1104   2.487       .  S
C1100      C1190   1.486       .  S
C1100      O1109   1.263       .  A
C1100      O1105   1.266       .  A
O1101      C1107   1.265       .  A
C1102      O1110   1.264       .  A
C1103      O1108   1.265       .  A
C1103      O1106   1.263       .  A
C1103      C1215   1.435       .  S
Cd1104     O1110   2.420       .  S
Cd1104     O1109   2.431       .  S
Cd1104     O1105   2.478       .  S
Cd1104     O1108   2.470       .  S
Cd1104     O1106   2.458       .  S
C1107      O1111   1.264       .  A
C1107      C1214   1.433       .  S
C1112      C1117   1.401       .  A
C1112      C1211   1.442       .  S
C1113      C1114   1.400       .  A
C1113      C1216   1.445       .  S
C1114      C1115   1.401       .  A
C1114      H1119   1.085       .  S
C1115      C1213   1.442       .  S
C1116      C1117   1.401       .  A
C1116      C1210   1.445       .  S
C1117      H1118   1.085       .  S
O1120      C1123   1.266       .  A
O1120     Cd1125   2.477       .  S
C1121      C1188   1.486       .  S
C1121      O1130   1.264       .  A
C1121      O1126   1.267       .  A
O1122      C1128   1.265       .  A
C1123      O1131   1.263       .  A
C1124      O1129   1.265       .  A
C1124      O1127   1.264       .  A
C1124      C1212   1.432       .  S
Cd1125     O1131   2.431       .  S
Cd1125     O1130   2.420       .  S
Cd1125     O1126   2.487       .  S
Cd1125     O1129   2.460       .  S
Cd1125     O1127   2.458       .  S
C1128      O1132   1.263       .  A
C1128      C1209   1.435       .  S
O1133      C1136   1.270       .  A
O1133     Cd1138   2.505       .  S
C1134      C1189   1.495       .  S
C1134      O1143   1.263       .  A
C1134      O1139   1.270       .  A
O1135      C1141   1.266       .  A
C1136      O1144   1.263       .  A
C1137      O1142   1.266       .  A
C1137      O1140   1.264       .  A
C1137      C1208   1.432       .  S
Cd1138     O1144   2.448       .  S
Cd1138     O1143   2.448       .  S
Cd1138     O1139   2.505       .  S
Cd1138     O1142   2.462       .  S
Cd1138     O1140   2.447       .  S
C1141      O1145   1.264       .  A
C1141      C1206   1.433       .  S
C1146      C1151   1.401       .  A
C1146      C1207   1.442       .  S
C1147      C1148   1.399       .  A
C1147      C1203   1.441       .  S
C1148      C1149   1.399       .  A
C1148      H1153   1.085       .  S
C1149      C1201   1.441       .  S
C1150      C1151   1.400       .  A
C1150      C1205   1.443       .  S
C1151      H1152   1.085       .  S
O1154      C1157   1.270       .  A
O1154     Cd1159   2.491       .  S
C1155      O1164   1.263       .  A
C1155      O1160   1.270       .  A
O1156      C1162   1.266       .  A
O1156     Cd1159   2.452       .  S
C1157      C1187   1.491       .  S
C1157      O1165   1.263       .  A
C1158      O1163   1.266       .  A
C1158      O1161   1.264       .  A
C1158      C1202   1.431       .  S
Cd1159     O1166   2.449       .  S
Cd1159     O1165   2.443       .  S
Cd1159     O1164   2.442       .  S
Cd1159     O1160   2.493       .  S
C1162      O1166   1.264       .  A
C1162      C1204   1.431       .  S
N1167      C1172   1.352       .  A
N1167      C1171   1.355       .  A
N1167      H1199   1.042       .  S
N1168      C1175   1.353       .  A
N1168      C1176   1.352       .  A
N1169      C1174   1.356       .  A
N1169      C1173   1.352       .  A
N1169      H1200   1.042       .  S
N1170      C1177   1.352       .  A
N1170      C1178   1.353       .  A
C1171      C1179   1.386       .  A
C1171      C1187   1.412       .  A
C1172      C1180   1.388       .  A
C1173      C1181   1.389       .  A
C1174      C1189   1.413       .  A
C1174      C1182   1.385       .  A
C1175      C1183   1.387       .  A
C1176      C1190   1.414       .  A
C1176      C1184   1.387       .  A
C1177      C1185   1.385       .  A
C1177      C1188   1.412       .  A
C1178      C1186   1.387       .  A
C1179      C1180   1.372       .  A
C1179      H1191   1.082       .  S
C1180      H1192   1.082       .  S
C1181      C1182   1.374       .  A
C1181      H1193   1.082       .  S
C1182      H1194   1.082       .  S
C1183      C1184   1.373       .  A
C1183      H1195   1.082       .  S
C1184      H1196   1.082       .  S
C1185      C1186   1.373       .  A
C1185      H1197   1.082       .  S
C1186      H1198   1.082       .  S
C1201      C1202   1.204       .  T
C1203      C1204   1.203       .  T
C1205      C1206   1.205       .  T
C1207      C1208   1.204       .  T
C1209      C1210   1.206       .  T
C1211      C1212   1.204       .  T
C1213      C1214   1.204       .  T
C1215      C1216   1.206       .  T
