geometry optimzed in LAMMPS
_audit_creation_date              2020-11-30 
_audit_creation_method            'lammps2cif' 
_symmetry_space_group_name_H-M    'P1' 
_symmetry_Int_Tables_number       1 
_symmetry_cell_setting            triclinic 
loop_ 
_symmetry_equiv_pos_as_xyz 
  x,y,z 
_cell_length_a                    44.11906068 
_cell_length_b                    68.09200228972692 
_cell_length_c                    45.97231822001399 
_cell_angle_alpha                 90.28424637989298 
_cell_angle_beta                  89.60405852085279 
_cell_angle_gamma                 90.53003321876096 
loop_ 
_atom_site_label 
_atom_site_type_symbol 
_atom_site_fract_x 
_atom_site_fract_y 
_atom_site_fract_z 
_atom_site_charge 
N1          N  0.69741580  0.23841151  0.37754332    -0.27200
N2          N  0.68254102  0.23179559  0.40061176    -0.35000
C3          C  0.68285860  0.24575931  0.42141449     0.01200
C4          C  0.69834018  0.26201432  0.41077818     0.07200
C5          C  0.70770715  0.25667179  0.38309555    -0.05900
H6          H  0.67182520  0.24442278  0.44239262     0.07900
H7          H  0.72095878  0.26532132  0.36792913     0.09100
Cu8        Cu  0.66075490  0.20466063  0.40206492     0.44200
Cu9        Cu  0.70064815  0.22342510  0.33834544     0.42000
Cu10       Cu  0.65851604  0.17829846  0.33319853     0.43900
N11         N  0.63856793  0.17793884  0.39611617    -0.34600
N12         N  0.63763079  0.16854576  0.37090801    -0.28800
C13         C  0.61966739  0.15262039  0.37351448    -0.04900
C14         C  0.60906765  0.15168734  0.40185751     0.07300
C15         C  0.62124170  0.16813508  0.41547845     0.01100
H16         H  0.61322453  0.14328156  0.35549997     0.08800
H17         H  0.61682610  0.17304223  0.43752900     0.07800
N18         N  0.68088897  0.19087123  0.29818875    -0.36000
N19         N  0.69657435  0.20743805  0.30010065    -0.28200
C20         C  0.70715756  0.21224362  0.27355357    -0.03400
C21         C  0.69803821  0.19783153  0.25406939     0.05200
C22         C  0.68111225  0.18464476  0.27039801     0.03300
H23         H  0.71921414  0.22573010  0.26869507     0.08400
H24         H  0.66932422  0.17168701  0.26253687     0.07200
N25         N  0.71637184  0.23627570  0.00506966    -0.27200
N26         N  0.72912036  0.22822509  0.98184376    -0.35000
C27         C  0.72682928  0.24065641  0.95934161     0.01200
C28         C  0.71226377  0.25743422  0.96890105     0.07200
C29         C  0.70555515  0.25399730  0.99790833    -0.05900
H30         H  0.73505598  0.23767829  0.93755888     0.07900
H31         H  0.69274414  0.26325350  0.01254950     0.09100
Cu32       Cu  0.74915186  0.20076021  0.98158170     0.44200
Cu33       Cu  0.71374770  0.22285731  0.04547535     0.42000
Cu34       Cu  0.74847167  0.17523678  0.05022953     0.43900
N35         N  0.77134362  0.17445056  0.98836385    -0.34600
N36         N  0.77122491  0.16523119  0.01359023    -0.28800
C37         C  0.79070642  0.15018947  0.01217251    -0.04900
C38         C  0.80359167  0.14973812  0.98460489     0.07300
C39         C  0.79085010  0.16544934  0.97022837     0.01100
H40         H  0.79680175  0.14125023  0.03052006     0.08800
H41         H  0.79692708  0.17081005  0.94864784     0.07800
N42         N  0.72726187  0.18895962  0.08500818    -0.36000
N43         N  0.71455560  0.20642217  0.08336782    -0.28200
C44         C  0.70418300  0.21157979  0.10989088    -0.03400
C45         C  0.71043606  0.19654337  0.12899658     0.05200
C46         C  0.72541644  0.18256191  0.11259540     0.03300
H47         H  0.69401711  0.22556863  0.11508734     0.08400
H48         H  0.73497445  0.16901767  0.12029205     0.07200
C49         C  0.47161916  0.96063092  0.49746265     0.80300
N50         N  0.49941701  0.95240784  0.49694257    -0.78000
C51         C  0.52435829  0.96268372  0.48831559     0.82800
N52         N  0.52133734  0.98184141  0.48077202    -0.77900
C53         C  0.49353983  0.99040248  0.48105477     0.82900
N54         N  0.46900456  0.97979662  0.48998103    -0.79600
C55         C  0.50714274  0.10302201  0.43547321     0.80300
N56         N  0.50996067  0.08418597  0.44456432    -0.78000
C57         C  0.48503894  0.07280745  0.44972814     0.82800
N58         N  0.45703939  0.08035653  0.44472295    -0.77900
C59         C  0.45404742  0.09900424  0.43487713     0.82900
N60         N  0.47921070  0.11002216  0.42976962    -0.79600
N61         N  0.24182612  0.86251459  0.95750326    -0.27200
N62         N  0.22136255  0.86749847  0.97730677    -0.35000
C63         C  0.22185907  0.85433043  0.99905889     0.01200
C64         C  0.24360491  0.84047699  0.99243206     0.07200
C65         C  0.25597166  0.84617908  0.96613634    -0.05900
H66         H  0.20719718  0.85465232  0.01799523     0.07900
H67         H  0.27327927  0.83866032  0.95373428     0.09100
Cu68       Cu  0.19236053  0.89116750  0.97270884     0.44200
Cu69       Cu  0.24773064  0.87648502  0.91803151     0.42000
Cu70       Cu  0.19253955  0.91211531  0.89967770     0.43900
N71         N  0.16343146  0.91328453  0.95946932    -0.34600
N72         N  0.16319661  0.92031151  0.93272288    -0.28800
C73         C  0.14074956  0.93334062  0.93048929    -0.04900
C74         C  0.12588364  0.93466050  0.95699944     0.07300
C75         C  0.14118905  0.92187661  0.97504571     0.01100
H76         H  0.13514796  0.94099477  0.91069217     0.08800
H77         H  0.13676206  0.91890287  0.99770119     0.07800
N78         N  0.22445774  0.90197412  0.87026831    -0.36000
N79         N  0.24519621  0.88899245  0.87727728    -0.28200
C80         C  0.26166420  0.88452932  0.85350811    -0.03400
C81         C  0.25051558  0.89507322  0.83038546     0.05200
C82         C  0.22715428  0.90616901  0.84181596     0.03300
H83         H  0.27960362  0.87380292  0.85283664     0.08400
H84         H  0.21291135  0.91639410  0.83033899     0.07200
N85         N  0.28536724  0.83609480  0.59812981    -0.27200
N86         N  0.29086964  0.84368134  0.57218992    -0.35000
C87         C  0.28124690  0.83100146  0.55170790     0.01200
C88         C  0.26887710  0.81481261  0.56548294     0.07200
C89         C  0.27221485  0.81835507  0.59485816    -0.05900
H90         H  0.28460434  0.83291403  0.52856294     0.07900
H91         H  0.26662666  0.80846983  0.61248478     0.09100
Cu92       Cu  0.31417585  0.86977955  0.56555934     0.44200
Cu93       Cu  0.29641710  0.84990154  0.63669416     0.42000
Cu94       Cu  0.33131914  0.89782013  0.63014122     0.43900
N95         N  0.34063266  0.89500509  0.56535851    -0.34600
N96         N  0.34704714  0.90520879  0.58908495    -0.28800
C97         C  0.36645364  0.91979895  0.58217052    -0.04900
C98         C  0.37223875  0.91889661  0.55258662     0.07300
C99         C  0.35580615  0.90283088  0.54270487     0.01100
H100        H  0.37704152  0.92947769  0.59789206     0.08800
H101        H  0.35585082  0.89679451  0.52085449     0.07800
N102        N  0.31342725  0.88694055  0.66860768    -0.36000
N103        N  0.30165485  0.86912031  0.67113081    -0.28200
C104        C  0.29065026  0.86686582  0.69820621    -0.03400
C105        C  0.29584238  0.88406238  0.71358568     0.05200
C106        C  0.31001167  0.89657355  0.69399607     0.03300
H107        H  0.27860697  0.85393463  0.70580040     0.08400
H108        H  0.31573070  0.91188457  0.69715224     0.07200
C109        C  0.96520142  0.97299852  0.93552939     0.80300
N110        N  0.95921824  0.99208719  0.94175165    -0.78000
C111        C  0.98088335  0.00403641  0.95338762     0.82800
N112        N  0.00887837  0.99674039  0.95876388    -0.77900
C113        C  0.01502605  0.97761517  0.95292167     0.82900
N114        N  0.99310138  0.96593222  0.94146111    -0.79600
C115        C  0.96907701  0.11658002  0.99064588     0.80300
N116        N  0.97440319  0.09752803  0.98379140    -0.78000
C117        C  0.95287810  0.08630305  0.97044407     0.82800
N118        N  0.92516144  0.09411785  0.96505624    -0.77900
C119        C  0.91966608  0.11328835  0.97158708     0.82900
N120        N  0.94159916  0.12416865  0.98452004    -0.79600
N121        N  0.14224827  0.25590799  0.07408646    -0.27200
N122        N  0.12762154  0.24910621  0.05109391    -0.35000
C123        C  0.13167548  0.26166555  0.02886565     0.01200
C124        C  0.14997029  0.27701383  0.03827351     0.07200
C125        C  0.15592318  0.27301791  0.06714103    -0.05900
H126        H  0.12167625  0.25985431  0.00761061     0.07900
H127        H  0.16956403  0.28175233  0.08186262     0.09100
Cu128      Cu  0.10309995  0.22293999  0.05110903     0.44200
Cu129      Cu  0.14403379  0.24100630  0.11329694     0.42000
Cu130      Cu  0.10463373  0.19389276  0.11710288     0.43900
N131        N  0.08022226  0.19639069  0.05617201    -0.34600
N132        N  0.08065235  0.18581664  0.08023522    -0.28800
C133        C  0.06327851  0.16966908  0.07647765    -0.04900
C134        C  0.05137463  0.17020254  0.04879748     0.07300
C135        C  0.06258174  0.18725293  0.03647545     0.01100
H136        H  0.05935622  0.15849362  0.09278322     0.08800
H137        H  0.05793877  0.19274972  0.01491667     0.07800
N138        N  0.13163604  0.20512375  0.15008546    -0.36000
N139        N  0.14593648  0.22225511  0.14867305    -0.28200
C140        C  0.16277783  0.22466869  0.17271258    -0.03400
C141        C  0.15857686  0.20841816  0.19022518     0.05200
C142        C  0.13895313  0.19621985  0.17510187     0.03300
H143        H  0.17753059  0.23714412  0.17685437     0.08400
H144        H  0.13153898  0.18163184  0.18117139     0.07200
N145        N  0.25896233  0.22991023  0.41891156    -0.27200
N146        N  0.27513897  0.22112679  0.43905543    -0.35000
C147        C  0.27481152  0.23229557  0.46335512     0.01200
C148        C  0.25807377  0.24897721  0.45783893     0.07200
C149        C  0.24816428  0.24685931  0.42960329    -0.05900
H150        H  0.28552623  0.22844224  0.48361794     0.07900
H151        H  0.23317909  0.25653839  0.41801909     0.09100
Cu152      Cu  0.29591600  0.19411488  0.43178473     0.44200
Cu153      Cu  0.24983177  0.21788885  0.37866263     0.42000
Cu154      Cu  0.27653238  0.16951813  0.36257611     0.43900
N155        N  0.31477943  0.16782413  0.41709565    -0.34600
N156        N  0.30717304  0.15881603  0.39259153    -0.28800
C157        C  0.32486032  0.14300766  0.38880667    -0.04900
C158        C  0.34506399  0.14218604  0.41165856     0.07300
C159        C  0.33769995  0.15799216  0.42935492     0.01100
H160        H  0.32347608  0.13323121  0.37033269     0.08800
H161        H  0.34923829  0.16258184  0.44898315     0.07800
N162        N  0.25016654  0.18547858  0.33402765    -0.36000
N163        N  0.24053859  0.20333139  0.34031039    -0.28200
C164        C  0.22429712  0.21011461  0.31800644    -0.03400
C165        C  0.22398954  0.19599306  0.29642320     0.05200
C166        C  0.24043824  0.18045366  0.30725114     0.03300
H167        H  0.21359140  0.22434748  0.31748703     0.08400
H168        H  0.24474928  0.16654548  0.29667721     0.07200
N169        N  0.76301773  0.84367887  0.87235003    -0.27200
N170        N  0.77847984  0.85003951  0.89510971    -0.35000
C171        C  0.77493129  0.83715777  0.91695516     0.01200
C172        C  0.75626834  0.82208748  0.90742950     0.07200
C173        C  0.74937262  0.82656948  0.87902161    -0.05900
H174        H  0.78700198  0.83788808  0.93734232     0.07900
H175        H  0.73709308  0.81742705  0.86373809     0.09100
Cu176      Cu  0.80812447  0.87376157  0.89381912     0.44200
Cu177      Cu  0.76481139  0.85657885  0.83191493     0.42000
Cu178      Cu  0.82172959  0.89459621  0.82305793     0.43900
N179        N  0.84043624  0.89530461  0.88564987    -0.34600
N180        N  0.84584680  0.90260202  0.85953810    -0.28800
C181        C  0.86814021  0.91610389  0.86135892    -0.04900
C182        C  0.87742946  0.91722008  0.88996978     0.07300
C183        C  0.85907354  0.90403805  0.90486251     0.01100
H184        H  0.87668936  0.92466808  0.84325604     0.08800
H185        H  0.85838392  0.90146326  0.92801177     0.07800
N186        N  0.79398140  0.88475745  0.79008087    -0.36000
N187        N  0.77318299  0.87083396  0.79320747    -0.28200
C188        C  0.76023402  0.86722514  0.76734512    -0.03400
C189        C  0.77324664  0.87973377  0.74712818     0.05200
C190        C  0.79474533  0.89047768  0.76221220     0.03300
H191        H  0.74378560  0.85566327  0.76342873     0.08400
H192        H  0.81032383  0.90132102  0.75342035     0.07200
N193        N  0.74354307  0.84363351  0.49977036    -0.27200
N194        N  0.72519695  0.84965863  0.47907357    -0.35000
C195        C  0.72692517  0.83699579  0.45650820     0.01200
C196        C  0.74692316  0.82227231  0.46376217     0.07200
C197        C  0.75736612  0.82713789  0.49106165    -0.05900
H198        H  0.71454860  0.83836961  0.43639841     0.07900
H199        H  0.77412822  0.81945209  0.50356929     0.09100
Cu200      Cu  0.69872284  0.87476977  0.48302179     0.44200
Cu201      Cu  0.74962315  0.85749073  0.53919406     0.42000
Cu202      Cu  0.71178285  0.90297869  0.54939025     0.43900
N203        N  0.67444771  0.89978329  0.49467031    -0.34600
N204        N  0.67984369  0.91012427  0.51855363    -0.28800
C205        C  0.65875965  0.92411891  0.52139757    -0.04900
C206        C  0.63892063  0.92245251  0.49841496     0.07300
C207        C  0.64961393  0.90698348  0.48173089     0.01100
H208        H  0.65694003  0.93399130  0.53982750     0.08800
H209        H  0.63896106  0.90060209  0.46273509     0.07800
N210        N  0.73878672  0.89053746  0.58077982    -0.36000
N211        N  0.75223692  0.87345592  0.57719735    -0.28200
C212        C  0.76474261  0.86803080  0.60242831    -0.03400
C213        C  0.75929855  0.88258762  0.62281101     0.05200
C214        C  0.74247732  0.89652406  0.60840890     0.03300
H215        H  0.77484529  0.85383165  0.60610903     0.08400
H216        H  0.73213869  0.90943313  0.61779462     0.07200
C217        C  0.48092660  0.47362423  0.94183912     0.80300
N218        N  0.45346139  0.46489674  0.94553641    -0.78000
C219        C  0.43016795  0.47473037  0.95814439     0.82800
N220        N  0.43465067  0.49372687  0.96680751    -0.77900
C221        C  0.46247185  0.50243831  0.96397862     0.82900
N222        N  0.48532148  0.49228098  0.95130576    -0.79600
C223        C  0.46287748  0.61694880  0.00184115     0.80300
N224        N  0.49166052  0.62382777  0.99999843    -0.78000
C225        C  0.51475679  0.61222310  0.99107787     0.82800
N226        N  0.50884334  0.59316235  0.98414915    -0.77900
C227        C  0.47997854  0.58589270  0.98563230     0.82900
N228        N  0.45729441  0.59781160  0.99497102    -0.79600
N229        N  0.71860436  0.35897888  0.50497701    -0.27200
N230        N  0.74006058  0.36293071  0.48561487    -0.35000
C231        C  0.74053344  0.34851969  0.46551839     0.01200
C232        C  0.71855326  0.33479496  0.47287732     0.07200
C233        C  0.70482306  0.34198388  0.49776732    -0.05900
H234        H  0.75648063  0.34768691  0.44758872     0.07900
H235        H  0.68663260  0.33519626  0.51014148     0.09100
Cu236      Cu  0.76945708  0.38668798  0.48921134     0.44200
Cu237      Cu  0.71127692  0.37560560  0.54198860     0.42000
Cu238      Cu  0.75776646  0.41901693  0.55149890     0.43900
N239        N  0.79791817  0.40991381  0.49998516    -0.34600
N240        N  0.79336688  0.42187284  0.52230962    -0.28800
C241        C  0.81709684  0.43428931  0.52457125    -0.04900
C242        C  0.83773105  0.42970933  0.50288797     0.07300
C243        C  0.82469477  0.41439409  0.48746924     0.01100
H244        H  0.81928676  0.44550817  0.54114836     0.08800
H245        H  0.83456163  0.40651691  0.46930535     0.07800
N246        N  0.72792096  0.40858866  0.58276059    -0.36000
N247        N  0.71158976  0.39237486  0.57952309    -0.28200
C248        C  0.69846811  0.38780517  0.60507306    -0.03400
C249        C  0.70723843  0.40167954  0.62545679     0.05200
C250        C  0.72543611  0.41486782  0.61041985     0.03300
H251        H  0.68502719  0.37469145  0.60895771     0.08400
H252        H  0.73689506  0.42773231  0.61894215     0.07200
N253        N  0.66948620  0.34472695  0.86326925    -0.27200
N254        N  0.65346046  0.35043420  0.88615939    -0.35000
C255        C  0.65597902  0.33696924  0.90724947     0.01200
C256        C  0.67414716  0.32196560  0.89708443     0.07200
C257        C  0.68260778  0.32745178  0.86922426    -0.05900
H258        H  0.64577185  0.33818347  0.92868258     0.07900
H259        H  0.69808469  0.31990901  0.85475394     0.09100
Cu260      Cu  0.63014780  0.37670986  0.88859924     0.44200
Cu261      Cu  0.67384212  0.36113693  0.82554075     0.42000
Cu262      Cu  0.63755255  0.40880921  0.82719907     0.43900
N263        N  0.60955973  0.40390761  0.88630255    -0.34600
N264        N  0.61233539  0.41566697  0.86364457    -0.28800
C265        C  0.59477757  0.43147156  0.86774686    -0.04900
C266        C  0.58068531  0.42970858  0.89451190     0.07300
C267        C  0.59027662  0.41199771  0.90558886     0.01100
H268        H  0.59165653  0.44300404  0.85198543     0.08800
H269        H  0.58264148  0.40504311  0.92546825     0.07800
N270        N  0.66032672  0.39775660  0.79156178    -0.36000
N271        N  0.67346502  0.38038213  0.79070490    -0.28200
C272        C  0.68469599  0.37735777  0.76380423    -0.03400
C273        C  0.67788563  0.39350343  0.74704806     0.05200
C274        C  0.66275297  0.40622146  0.76534115     0.03300
H275        H  0.69616089  0.36417025  0.75674719     0.08400
H276        H  0.65378785  0.42051928  0.75997225     0.07200
N277        N  0.24474382  0.72487049  0.46362163    -0.27200
N278        N  0.22753929  0.71647393  0.48377407    -0.35000
C279        C  0.22868825  0.72740247  0.50820253     0.01200
C280        C  0.24795158  0.74313241  0.50312979     0.07200
C281        C  0.25749976  0.74119962  0.47468389    -0.05900
H282        H  0.21562599  0.72452330  0.52774750     0.07900
H283        H  0.27139942  0.75144640  0.46244975     0.09100
Cu284      Cu  0.20150978  0.69153987  0.47630443     0.44200
Cu285      Cu  0.24770598  0.71555978  0.42100042     0.42000
Cu286      Cu  0.20598911  0.67224833  0.40241399     0.43900
N287        N  0.17577681  0.66810996  0.46120735    -0.34600
N288        N  0.17752540  0.66121139  0.43432516    -0.28800
C289        C  0.15591180  0.64747185  0.43054594    -0.04900
C290        C  0.13955896  0.64573689  0.45613552     0.07300
C291        C  0.15304322  0.65882861  0.47530930     0.01100
H292        H  0.15133154  0.64006587  0.41014377     0.08800
H293        H  0.14655981  0.66180306  0.49758213     0.07800
N294        N  0.23084668  0.68825063  0.37245151    -0.36000
N295        N  0.24578911  0.70450412  0.37924731    -0.28200
C296        C  0.25854507  0.71199414  0.35507380    -0.03400
C297        C  0.25094633  0.69994742  0.33192062     0.05200
C298        C  0.23376236  0.68486770  0.34376368     0.03300
H299        H  0.27225511  0.72524866  0.35438073     0.08400
H300        H  0.22448544  0.67217102  0.33259133     0.07200
N301        N  0.28869827  0.75114467  0.09166919    -0.27200
N302        N  0.29799578  0.74291151  0.06710504    -0.35000
C303        C  0.29318483  0.75537860  0.04501938     0.01200
C304        C  0.28047932  0.77226423  0.05632673     0.07200
C305        C  0.27773396  0.76907058  0.08588967    -0.05900
H306        H  0.29889318  0.75247662  0.02249146     0.07900
H307        H  0.26862677  0.77905663  0.10199974     0.09100
Cu308      Cu  0.31796917  0.71544935  0.06499694     0.44200
Cu309      Cu  0.29183532  0.73772557  0.13192861     0.42000
Cu310      Cu  0.32886849  0.69022771  0.13313756     0.43900
N311        N  0.34092771  0.68910743  0.06862246    -0.34600
N312        N  0.34550625  0.68007934  0.09356790    -0.28800
C313        C  0.36371689  0.66462771  0.08886351    -0.04900
C314        C  0.37050249  0.66362468  0.05942193     0.07300
C315        C  0.35590751  0.67954494  0.04739129     0.01100
H316        H  0.37300111  0.65571581  0.10603853     0.08800
H317        H  0.35727919  0.68435674  0.02503371     0.07800
N318        N  0.31034447  0.70374049  0.16959106    -0.36000
N319        N  0.29705133  0.72106622  0.16917548    -0.28200
C320        C  0.28664452  0.72527543  0.19602668    -0.03400
C321        C  0.29409931  0.71000551  0.21426813     0.05200
C322        C  0.30868274  0.69647764  0.19670183     0.03300
H323        H  0.27386849  0.73823927  0.20169478     0.08400
H324        H  0.31633841  0.68199909  0.20281107     0.07200
N325        N  0.74317938  0.72520906  0.99717169    -0.27200
N326        N  0.72263648  0.71928275  0.97815187    -0.35000
C327        C  0.72190209  0.73219102  0.95612421     0.01200
C328        C  0.74318323  0.74672921  0.96153772     0.07200
C329        C  0.75600326  0.74200401  0.98782021    -0.05900
H330        H  0.70599081  0.73159524  0.93833489     0.07900
H331        H  0.77233173  0.75062559  0.99994086     0.09100
Cu332      Cu  0.69457968  0.69503869  0.98431909     0.44200
Cu333      Cu  0.75137492  0.71151988  0.03623909     0.42000
Cu334      Cu  0.71112557  0.66632091  0.04832714     0.43900
N335        N  0.66959728  0.67053248  0.99692124    -0.34600
N336        N  0.67622169  0.65983425  0.01990623    -0.28800
C337        C  0.65465114  0.64599229  0.02357430    -0.04900
C338        C  0.63324577  0.64822860  0.00208275     0.07300
C339        C  0.64351426  0.66379708  0.98540149     0.01100
H340        H  0.65389525  0.63572098  0.04138220     0.08800
H341        H  0.63197336  0.67046375  0.96730942     0.07800
N342        N  0.74103967  0.67845676  0.07801287    -0.36000
N343        N  0.75534808  0.69534888  0.07383019    -0.28200
C344        C  0.77014211  0.70041638  0.09823645    -0.03400
C345        C  0.76462586  0.68607554  0.11878446     0.05200
C346        C  0.74637763  0.67226975  0.10519042     0.03300
H347        H  0.78256632  0.71404187  0.10131580     0.08400
H348        H  0.73662520  0.65912679  0.11467301     0.07200
N349        N  0.80236846  0.73678774  0.35918923    -0.27200
N350        N  0.81441814  0.72990795  0.38328940    -0.35000
C351        C  0.80912699  0.74268688  0.40511140     0.01200
C352        C  0.79332327  0.75844360  0.39410245     0.07200
C353        C  0.78905252  0.75405351  0.36501313    -0.05900
H354        H  0.81591566  0.74055902  0.42742695     0.07900
H355        H  0.77611400  0.76225002  0.34946842     0.09100
Cu356      Cu  0.83629530  0.70307591  0.38555653     0.44200
Cu357      Cu  0.80294453  0.72212342  0.31968197     0.42000
Cu358      Cu  0.83267445  0.67318420  0.32002944     0.43900
N359        N  0.85665451  0.67582564  0.38110192    -0.34600
N360        N  0.85479429  0.66488342  0.35731397    -0.28800
C361        C  0.87211729  0.64891886  0.36038291    -0.04900
C362        C  0.88560039  0.64991449  0.38731326     0.07300
C363        C  0.87529659  0.66706682  0.39998626     0.01100
H364        H  0.87588001  0.63797289  0.34364273     0.08800
H365        H  0.88206214  0.67321652  0.42071838     0.07800
N366        N  0.81485245  0.68609184  0.28352275    -0.36000
N367        N  0.80426359  0.70417818  0.28327548    -0.28200
C368        C  0.79470317  0.70833588  0.25633652    -0.03400
C369        C  0.79995855  0.69217198  0.23879430     0.05200
C370        C  0.81242394  0.67824949  0.25675672     0.03300
H371        H  0.78462896  0.72208925  0.24999068     0.08400
H372        H  0.81875903  0.66339280  0.25102488     0.07200
C373        C  0.00951107  0.45770272  0.48731599     0.80300
N374        N  0.01346886  0.47707919  0.48157052    -0.78000
C375        C  0.98945089  0.48832361  0.47442805     0.82800
N376        N  0.96135104  0.48014269  0.47300762    -0.77900
C377        C  0.95708404  0.46085379  0.47908611     0.82900
N378        N  0.98119224  0.44978290  0.48660582    -0.79600
C379        C  0.02951227  0.59986548  0.45097222     0.80300
N380        N  0.02613624  0.58042822  0.45644151    -0.78000
C381        C  0.99986352  0.57093105  0.44988156     0.82800
N382        N  0.97621221  0.58121256  0.43923254    -0.77900
C383        C  0.97881900  0.60083027  0.43474906     0.82900
N384        N  0.00565292  0.60996332  0.44033487    -0.79600
N385        N  0.19562045  0.36565881  0.93681356    -0.27200
N386        N  0.21282976  0.37223639  0.95828784    -0.35000
C387        C  0.20858454  0.36062066  0.98164906     0.01200
C388        C  0.18759622  0.34615813  0.97453984     0.07200
C389        C  0.18015842  0.34967960  0.94588879    -0.05900
H390        H  0.22082971  0.36209533  0.00184819     0.07900
H391        H  0.16521609  0.34094069  0.93238546     0.09100
Cu392      Cu  0.24318332  0.39574785  0.95401633     0.44200
Cu393      Cu  0.19530480  0.37763036  0.89531175     0.42000
Cu394      Cu  0.24537314  0.41903708  0.88336803     0.43900
N395        N  0.27285171  0.41865844  0.94322358    -0.34600
N396        N  0.27313191  0.42734518  0.91756358    -0.28800
C397        C  0.29611024  0.44045020  0.91661134    -0.04900
C398        C  0.31096841  0.44019156  0.94301732     0.07300
C399        C  0.29580269  0.42601099  0.95922264     0.01100
H400        H  0.30283364  0.44844825  0.89731408     0.08800
H401        H  0.30183963  0.42083634  0.98059792     0.07800
N402        N  0.22015714  0.40583603  0.85068704    -0.36000
N403        N  0.20169275  0.39070345  0.85495164    -0.28200
C404        C  0.19122355  0.38441314  0.82905776    -0.03400
C405        C  0.20361950  0.39622027  0.80755254     0.05200
C406        C  0.22206468  0.40949679  0.82202080     0.03300
H407        H  0.17729265  0.37141408  0.82597694     0.08400
H408        H  0.23699324  0.42035233  0.81229477     0.07200
N409        N  0.20412316  0.33241868  0.56693115    -0.27200
N410        N  0.18903975  0.33767225  0.54348994    -0.35000
C411        C  0.19363983  0.32435307  0.52229820     0.01200
C412        C  0.21219693  0.30989023  0.53293724     0.07200
C413        C  0.21869225  0.31551042  0.56120842    -0.05900
H414        H  0.18467307  0.32535291  0.50051229     0.07900
H415        H  0.23367248  0.30823875  0.57613801     0.09100
Cu416      Cu  0.16377176  0.36301870  0.54042885     0.44200
Cu417      Cu  0.20534425  0.34917486  0.60496622     0.42000
Cu418      Cu  0.16893662  0.39671222  0.60045683     0.43900
N419        N  0.13945304  0.38880327  0.54289440    -0.34600
N420        N  0.14161232  0.40127618  0.56491227    -0.28800
C421        C  0.12164351  0.41582118  0.56125666    -0.04900
C422        C  0.10611566  0.41221077  0.53578966     0.07300
C423        C  0.11811335  0.39510904  0.52450770     0.01100
H424        H  0.11823156  0.42783305  0.57635710     0.08800
H425        H  0.11108891  0.38744488  0.50498042     0.07800
N426        N  0.19020784  0.38661349  0.63725915    -0.36000
N427        N  0.20269230  0.36911141  0.63941067    -0.28200
C428        C  0.21084748  0.36628811  0.66722430    -0.03400
C429        C  0.20348476  0.38290807  0.68323958     0.05200
C430        C  0.19022304  0.39538036  0.66348403     0.03300
H431        H  0.21953375  0.35256030  0.67539995     0.08400
H432        H  0.17997834  0.40943340  0.66813765     0.07200
C433        C  0.22978037  0.38703902  0.76193795    -0.05700
C434        C  0.20286380  0.39277650  0.77582031     0.00300
C435        C  0.17638567  0.39556696  0.75928207    -0.08300
C436        C  0.17764258  0.39208692  0.72911975    -0.05700
C437        C  0.20434516  0.38577839  0.71522522     0.00300
C438        C  0.23106118  0.38340598  0.73178772    -0.08200
C439        C  0.26095405  0.37745660  0.71790751     0.62200
H440        H  0.24980071  0.38514712  0.77510529     0.12900
H441        H  0.15752370  0.39404130  0.71611318     0.12900
C442        C  0.14715359  0.40249800  0.77338685     0.62400
F443        F  0.28494087  0.37993567  0.73688029    -0.22800
F444        F  0.26691434  0.38878469  0.69359997    -0.20100
F445        F  0.25968574  0.35787947  0.70998352    -0.19800
F446        F  0.15245441  0.41964156  0.78888236    -0.19800
F447        F  0.13617402  0.38823457  0.79207011    -0.20200
F448        F  0.12501914  0.40623347  0.75298630    -0.22800
C449        C  0.02935317  0.43531981  0.52437134    -0.05700
C450        C  0.03473051  0.44602305  0.49880389     0.00300
C451        C  0.06340407  0.44499166  0.48480489    -0.08300
C452        C  0.08618440  0.43370024  0.49765826    -0.05700
C453        C  0.08103177  0.42361440  0.52372979     0.00300
C454        C  0.05209607  0.42402786  0.53714558    -0.08200
C455        C  0.04511922  0.41233048  0.56447396     0.62200
H456        H  0.00717080  0.43613558  0.53458335     0.12900
H457        H  0.10841868  0.43277410  0.48757486     0.12900
C458        C  0.06963822  0.45513565  0.45600568     0.62400
F459        F  0.01463141  0.41288344  0.57176347    -0.22800
F460        F  0.06137090  0.41995894  0.58756440    -0.20100
F461        F  0.05289355  0.39288259  0.56025598    -0.19800
F462        F  0.06971824  0.47527480  0.45987776    -0.19800
F463        F  0.04753731  0.44990869  0.43613807    -0.20200
F464        F  0.09747704  0.44993320  0.44437593    -0.22800
C465        C  0.98481525  0.51618474  0.44114246    -0.05700
C466        C  0.99347850  0.50938630  0.46852020     0.00300
C467        C  0.00429577  0.52276937  0.48978302    -0.08300
C468        C  0.00586774  0.54281090  0.48275396    -0.05700
C469        C  0.99697132  0.54967802  0.45540253     0.00300
C470        C  0.98684291  0.53617315  0.43392081    -0.08200
C471        C  0.97950883  0.54258306  0.40317495     0.62200
H472        H  0.97662392  0.50558691  0.42532271     0.12900
H473        H  0.01390659  0.55336718  0.49869941     0.12900
C474        C  0.01331701  0.51602284  0.51993658     0.62400
F475        F  0.97449885  0.52667389  0.38490079    -0.22800
F476        F  0.00347223  0.55340697  0.39184417    -0.20100
F477        F  0.95365452  0.55385850  0.40327180    -0.19800
F478        F  0.03868712  0.50431548  0.51799502    -0.19800
F479        F  0.98977086  0.50544406  0.53250736    -0.20200
F480        F  0.02011361  0.53170350  0.53812200    -0.22800
C481        C  0.90111481  0.62226543  0.41802418    -0.05700
C482        C  0.90940742  0.63700785  0.39835221     0.00300
C483        C  0.94004369  0.63945503  0.38993904    -0.08300
C484        C  0.96173270  0.62698406  0.40194604    -0.05700
C485        C  0.95373104  0.61222624  0.42194224     0.00300
C486        C  0.92278192  0.60968041  0.43009605    -0.08200
C487        C  0.91254149  0.59435661  0.45207347     0.62200
H488        H  0.87738230  0.62077523  0.42391958     0.12900
H489        H  0.98534332  0.62871501  0.39575611     0.12900
C490        C  0.94974278  0.65535937  0.36867089     0.62400
F491        F  0.88219103  0.59625353  0.45932284    -0.22800
F492        F  0.92915031  0.59633614  0.47734383    -0.20100
F493        F  0.91644513  0.57574681  0.44062146    -0.19800
F494        F  0.94131726  0.67355800  0.37930127    -0.19800
F495        F  0.93604347  0.65212786  0.34209937    -0.20200
F496        F  0.98081058  0.65567979  0.36421683    -0.22800
C497        C  0.80383131  0.68602423  0.15673127    -0.05700
C498        C  0.77301147  0.68698035  0.14971930     0.00300
C499        C  0.75113639  0.69002577  0.17194610    -0.08300
C500        C  0.76098190  0.69147005  0.20086079    -0.05700
C501        C  0.79168401  0.68996266  0.20797069     0.00300
C502        C  0.81365685  0.68742569  0.18571414    -0.08200
C503        C  0.84727320  0.68679184  0.19247857     0.62200
H504        H  0.82015198  0.68410397  0.13923115     0.12900
H505        H  0.74470306  0.69372224  0.21830912     0.12900
C506        C  0.71770978  0.69231839  0.16513782     0.62400
F507        F  0.86485936  0.68677878  0.16742358    -0.22800
F508        F  0.85362462  0.66994791  0.20782926    -0.20100
F509        F  0.85547825  0.70305190  0.20889311    -0.19800
F510        F  0.70600346  0.67475885  0.15481228    -0.19800
F511        F  0.71403552  0.70673660  0.14439399    -0.20200
F512        F  0.70107440  0.69763894  0.18952438    -0.22800
C513        C  0.05722499  0.63014354  0.46445391    -0.05700
C514        C  0.05874144  0.61029907  0.45603257     0.00300
C515        C  0.08753989  0.60177904  0.45048775    -0.08300
C516        C  0.11352380  0.61381636  0.45249941    -0.05700
C517        C  0.11174264  0.63376929  0.45985000     0.00300
C518        C  0.08320322  0.64214382  0.46632569    -0.08200
C519        C  0.07977578  0.66377495  0.47388784     0.62200
H520        H  0.03519250  0.63635444  0.46906223     0.12900
H521        H  0.13565954  0.60786697  0.44752315     0.12900
C522        C  0.09116100  0.58044454  0.44125980     0.62400
F523        F  0.04965013  0.66920010  0.47570227    -0.22800
F524        F  0.09356881  0.67527045  0.45279743    -0.20100
F525        F  0.09284388  0.66761997  0.50054886    -0.19800
F526        F  0.07381030  0.57655823  0.41691234    -0.19800
F527        F  0.08223844  0.56822223  0.46373667    -0.20200
F528        F  0.12094519  0.57604757  0.43435293    -0.22800
C529        C  0.25249619  0.70702710  0.25002001    -0.05700
C530        C  0.28382024  0.70732853  0.24461610     0.00300
C531        C  0.30429737  0.70557017  0.26802062    -0.08300
C532        C  0.29248045  0.70300340  0.29622444    -0.05700
C533        C  0.26116882  0.70218935  0.30151783     0.00300
C534        C  0.24067015  0.70450787  0.27823867    -0.08200
C535        C  0.20660333  0.70501668  0.28321159     0.62200
H536        H  0.23731526  0.70866111  0.23177814     0.12900
H537        H  0.30765066  0.70160080  0.31452116     0.12900
C538        C  0.33833767  0.70724579  0.26347231     0.62400
F539        F  0.19120474  0.70972971  0.25809084    -0.22800
F540        F  0.19967482  0.71897028  0.30413808    -0.20100
F541        F  0.19626526  0.68684240  0.29231436    -0.19800
F542        F  0.34532050  0.72502946  0.25053381    -0.19800
F543        F  0.34837897  0.69212776  0.24586347    -0.20200
F544        F  0.35390439  0.70628154  0.28947529    -0.22800
C545        C  0.87425599  0.44629600  0.47034412    -0.05700
C546        C  0.86812180  0.43825636  0.49782625     0.00300
C547        C  0.89150558  0.43716824  0.51872303    -0.08300
C548        C  0.92020914  0.44478401  0.51149241    -0.05700
C549        C  0.92622030  0.45315433  0.48424165     0.00300
C550        C  0.90310792  0.45382009  0.46307392    -0.08200
C551        C  0.90919576  0.46156038  0.43264287     0.62200
H552        H  0.85617267  0.44653058  0.45454253     0.12900
H553        H  0.93830550  0.44441573  0.52727989     0.12900
C554        C  0.88673432  0.42745036  0.54810949     0.62400
F555        F  0.88421687  0.45925940  0.41483037    -0.22800
F556        F  0.93305896  0.45144079  0.42016203    -0.20100
F557        F  0.91637365  0.48134308  0.43378421    -0.19800
F558        F  0.87461708  0.40881112  0.54436272    -0.19800
F559        F  0.86732256  0.43854772  0.56502633    -0.20200
F560        F  0.91366066  0.42565134  0.56313888    -0.22800
C561        C  0.67014458  0.39869368  0.66540321    -0.05700
C562        C  0.70061278  0.40085580  0.65696934     0.00300
C563        C  0.72370795  0.40023818  0.67831112    -0.08300
C564        C  0.71517427  0.39788544  0.70760540    -0.05700
C565        C  0.68471370  0.39623336  0.71596980     0.00300
C566        C  0.66169215  0.39645755  0.69471938    -0.08200
C567        C  0.62847059  0.39392520  0.70289275     0.62200
H568        H  0.65293451  0.39882024  0.64870511     0.12900
H569        H  0.73227410  0.39745049  0.72439216     0.12900
C570        C  0.75718936  0.40145476  0.67046639     0.62400
F571        F  0.61033761  0.39179882  0.67860329    -0.22800
F572        F  0.61875118  0.41021583  0.71824028    -0.20100
F573        F  0.62455041  0.37736694  0.71988143    -0.19800
F574        F  0.76454223  0.42030035  0.66179135    -0.19800
F575        F  0.76385313  0.38835225  0.64828885    -0.20200
F576        F  0.77536016  0.39694228  0.69389570    -0.22800
C577        C  0.55239496  0.63203727  0.01770265    -0.05700
C578        C  0.54622087  0.61992714  0.99358609     0.00300
C579        C  0.56908819  0.61701402  0.97216032    -0.08300
C580        C  0.59748804  0.62634096  0.97595185    -0.05700
C581        C  0.60339244  0.63838638  0.00013752     0.00300
C582        C  0.58041035  0.64159856  0.02118462    -0.08200
C583        C  0.58483452  0.65572881  0.04655063     0.62200
H584        H  0.53475412  0.63415780  0.03388298     0.12900
H585        H  0.61535901  0.62439580  0.95996742     0.12900
C586        C  0.56337776  0.60480928  0.94499269     0.62400
F587        F  0.55827443  0.65845473  0.06222351    -0.22800
F588        F  0.59430048  0.67386076  0.03631939    -0.20100
F589        F  0.60625986  0.64850856  0.06535877    -0.19800
F590        F  0.53782846  0.61148377  0.93099502    -0.19800
F591        F  0.55925057  0.58531959  0.95243432    -0.20200
F592        F  0.58746230  0.60591713  0.92556902    -0.22800
C593        C  0.41552040  0.61984813  0.03100404    -0.05700
C594        C  0.43874538  0.62935525  0.01517572     0.00300
C595        C  0.43846786  0.65022764  0.01306567    -0.08300
C596        C  0.41583068  0.66064515  0.02811229    -0.05700
C597        C  0.39333836  0.65113134  0.04464134     0.00300
C598        C  0.39259809  0.63034404  0.04558702    -0.08200
C599        C  0.36725339  0.61917527  0.06095405     0.62200
H600        H  0.41568720  0.60398872  0.03236403     0.12900
H601        H  0.41573645  0.67654081  0.02740158     0.12900
C602        C  0.46115490  0.66172650  0.99457120     0.62400
F603        F  0.36853338  0.59919434  0.05537654    -0.22800
F604        F  0.33947323  0.62579313  0.05151449    -0.20100
F605        F  0.36934294  0.62185304  0.09065508    -0.19800
F606        F  0.46296192  0.65353698  0.96701875    -0.19800
F607        F  0.48939108  0.66164818  0.00742492    -0.20200
F608        F  0.45278659  0.68115293  0.99144739    -0.22800
C609        C  0.53414592  0.46305277  0.94311481    -0.05700
C610        C  0.50632439  0.46283158  0.92848472     0.00300
C611        C  0.50388446  0.45317805  0.90119550    -0.08300
C612        C  0.52895203  0.44266165  0.89064195    -0.05700
C613        C  0.55617210  0.44204265  0.90611888     0.00300
C614        C  0.55942908  0.45301822  0.93207574    -0.08200
C615        C  0.58971857  0.45461753  0.94738507     0.62200
H616        H  0.53582469  0.47099920  0.96352576     0.12900
H617        H  0.52738684  0.43458175  0.87033251     0.12900
C618        C  0.47555762  0.45460185  0.88273742     0.62400
F619        F  0.58882009  0.46787861  0.97030090    -0.22800
F620        F  0.61172960  0.46096090  0.92791338    -0.20100
F621        F  0.59775568  0.43652490  0.95822502    -0.19800
F622        F  0.46751709  0.47408036  0.87977644    -0.19800
F623        F  0.45194719  0.44432328  0.89559994    -0.20200
F624        F  0.48005105  0.44689879  0.85513034    -0.22800
C625        C  0.37453896  0.47797698  0.95228191    -0.05700
C626        C  0.39922388  0.46577263  0.95827986     0.00300
C627        C  0.39383695  0.44535020  0.96266323    -0.08300
C628        C  0.36444461  0.43775142  0.95819734    -0.05700
C629        C  0.34039550  0.44977563  0.94995695     0.00300
C630        C  0.34510438  0.47034025  0.94814539    -0.08200
C631        C  0.31936354  0.48425735  0.94170937     0.62200
H632        H  0.37866003  0.49356294  0.94946082     0.12900
H633        H  0.36027298  0.42210112  0.96006800     0.12900
C634        C  0.41859545  0.43142062  0.97212409     0.62400
F635        F  0.32717939  0.50351915  0.94821519    -0.22800
F636        F  0.29408073  0.47939067  0.95821935    -0.20100
F637        F  0.31218688  0.48318465  0.91254562    -0.19800
F638        F  0.43563760  0.43988114  0.99408977    -0.19800
F639        F  0.43719634  0.42695083  0.94876291    -0.20200
F640        F  0.40657199  0.41397562  0.98268709    -0.22800
C641        C  0.44437334  0.53672483  0.96274546    -0.05700
C642        C  0.46699347  0.52357566  0.97105942     0.00300
C643        C  0.49367225  0.53097886  0.98454094    -0.08300
C644        C  0.49653924  0.55134471  0.98919546    -0.05700
C645        C  0.47416402  0.56457624  0.98044517     0.00300
C646        C  0.44765332  0.55717170  0.96663156    -0.08200
C647        C  0.42352182  0.57064367  0.95464354     0.62200
H648        H  0.42433106  0.53084140  0.95225639     0.12900
H649        H  0.51668507  0.55715532  0.99958245     0.12900
C650        C  0.51916434  0.51763848  0.99413881     0.62400
F651        F  0.40273001  0.56050548  0.93769863    -0.22800
F652        F  0.43692682  0.58492587  0.93739791    -0.20100
F653        F  0.40779820  0.57942961  0.97724195    -0.19800
F654        F  0.53456080  0.51059615  0.97002446    -0.19800
F655        F  0.50754162  0.50206932  0.01004332    -0.20200
F656        F  0.53995852  0.52747803  0.01145316    -0.22800
C657        C  0.77495827  0.81001809  0.42094993    -0.05700
C658        C  0.75722742  0.80573027  0.44553379     0.00300
C659        C  0.75097177  0.78595441  0.45298967    -0.08300
C660        C  0.76300677  0.77095981  0.43536782    -0.05700
C661        C  0.78091225  0.77519701  0.41080665     0.00300
C662        C  0.78739941  0.79502530  0.40354640    -0.08200
C663        C  0.80851185  0.80040073  0.37853144     0.62200
H664        H  0.77956230  0.82527672  0.41591175     0.12900
H665        H  0.75850240  0.75572441  0.44061172     0.12900
C666        C  0.73108143  0.78074051  0.47898660     0.62400
F667        F  0.81570977  0.82023602  0.37855935    -0.22800
F668        F  0.79487821  0.79598208  0.35233257    -0.20100
F669        F  0.83527353  0.79009837  0.38073197    -0.19800
F670        F  0.70328536  0.78978115  0.47644637    -0.19800
F671        F  0.74474693  0.78690833  0.50442968    -0.20200
F672        F  0.72604805  0.76069452  0.48101977    -0.22800
C673        C  0.76791407  0.78690260  0.90979406    -0.05700
C674        C  0.75196550  0.80289626  0.92134361     0.00300
C675        C  0.73234273  0.80028708  0.94544364    -0.08300
C676        C  0.72987877  0.78154607  0.95786387    -0.05700
C677        C  0.74620585  0.76564135  0.94661565     0.00300
C678        C  0.76538684  0.76815019  0.92217625    -0.08200
C679        C  0.78323525  0.75113423  0.90961832     0.62200
H680        H  0.78265926  0.78931733  0.89117564     0.12900
H681        H  0.71529423  0.77914426  0.97660074     0.12900
C682        C  0.71386798  0.81715606  0.95757524     0.62400
F683        F  0.80053059  0.75673131  0.88575670    -0.22800
F684        F  0.76351949  0.73637844  0.90089192    -0.20100
F685        F  0.80250264  0.74388097  0.93050996    -0.19800
F686        F  0.69695894  0.82538859  0.93561585    -0.19800
F687        F  0.73303520  0.83129931  0.96912264    -0.20200
F688        F  0.69408950  0.81102452  0.97928758    -0.22800
C689        C  0.79441064  0.87798710  0.69763055    -0.05700
C690        C  0.76866814  0.87994548  0.71544271     0.00300
C691        C  0.74003660  0.88332631  0.70281286    -0.08300
C692        C  0.73804652  0.88375054  0.67236908    -0.05700
C693        C  0.76370258  0.88144880  0.65451438     0.00300
C694        C  0.79254978  0.87893073  0.66719991    -0.08200
C695        C  0.82138271  0.87828119  0.64898404     0.62200
H696        H  0.81615310  0.87582339  0.70787290     0.12900
H697        H  0.71627530  0.88591303  0.66217323     0.12900
C698        C  0.71200136  0.88736703  0.72118340     0.62400
F699        F  0.84708303  0.87841185  0.66611905    -0.22800
F700        F  0.82285492  0.89451619  0.63104899    -0.20100
F701        F  0.82183449  0.86140492  0.63223160    -0.19800
F702        F  0.71821784  0.90198151  0.74134660    -0.19800
F703        F  0.70294607  0.87050054  0.73548831    -0.20200
F704        F  0.68800079  0.89355542  0.70439115    -0.22800
C705        C  0.24676116  0.29855177  0.49419395    -0.05700
C706        C  0.22558048  0.29368180  0.51590214     0.00300
C707        C  0.21629477  0.27389942  0.51956844    -0.08300
C708        C  0.22841821  0.25950498  0.50084203    -0.05700
C709        C  0.24887944  0.26449125  0.47853488     0.00300
C710        C  0.25870967  0.28421301  0.47535501    -0.08200
C711        C  0.28174227  0.29005057  0.45222616     0.62200
H712        H  0.25341940  0.31381661  0.49176796     0.12900
H713        H  0.22121537  0.24431196  0.50279278     0.12900
C714        C  0.19280875  0.26823774  0.54234674     0.62400
F715        F  0.29133652  0.30934628  0.45555895    -0.22800
F716        F  0.26905433  0.28805585  0.42496062    -0.20100
F717        F  0.30690755  0.27815863  0.45399022    -0.19800
F718        F  0.16623219  0.27828237  0.53743340    -0.19800
F719        F  0.20345067  0.27295037  0.56973361    -0.27400
F720        F  0.18626038  0.24831376  0.54172618    -0.22800
C721        C  0.18817914  0.31030518  0.98240896    -0.05700
C722        C  0.17846587  0.32882250  0.99192802     0.00300
C723        C  0.15945662  0.33029750  0.01675881    -0.08300
C724        C  0.15087854  0.31299042  0.03144113    -0.05700
C725        C  0.16017747  0.29444219  0.02163602     0.00300
C726        C  0.17945754  0.29298267  0.99695143    -0.08200
C727        C  0.19122724  0.27331353  0.98629845     0.62200
H728        H  0.20260609  0.30953981  0.96327437     0.12900
H729        H  0.13633573  0.31375503  0.05049445     0.12900
C730        C  0.14743393  0.34997258  0.02699229     0.62400
F731        F  0.21318160  0.27553500  0.96487043    -0.22800
F732        F  0.16768192  0.26231514  0.97481002    -0.20100
F733        F  0.20399114  0.26319360  0.00910833    -0.19800
F734        F  0.13183133  0.35878858  0.00464355    -0.19800
F735        F  0.17122515  0.36202541  0.03534071    -0.20200
F736        F  0.12785078  0.34800896  0.05048818    -0.22800
C737        C  0.20638706  0.20317597  0.21653273    -0.05700
C738        C  0.17463475  0.20414800  0.21751371     0.00300
C739        C  0.15917156  0.20203288  0.24441894    -0.08300
C740        C  0.17621275  0.19856852  0.26956861    -0.05700
C741        C  0.20789855  0.19742278  0.26854154     0.00300
C742        C  0.22343358  0.19990533  0.24177528    -0.08200
C743        C  0.25780368  0.19975169  0.24013360     0.62200
H744        H  0.21773263  0.20513119  0.19576010     0.12900
H745        H  0.16496758  0.19709877  0.29047931     0.12900
C746        C  0.12507509  0.20446711  0.24682432     0.62400
F747        F  0.26839397  0.20405839  0.21244857    -0.22800
F748        F  0.26824067  0.18139194  0.24760083    -0.20100
F749        F  0.26966379  0.21361726  0.25909579    -0.19800
F750        F  0.11051387  0.18964013  0.23162543    -0.19800
F751        F  0.11695324  0.22244242  0.23551734    -0.20200
F752        F  0.11510394  0.20374606  0.27542772    -0.22800
C753        C  0.04235456  0.14072665  0.01847765    -0.05700
C754        C  0.03032081  0.15596557  0.03539120     0.00300
C755        C  0.99867756  0.15767426  0.03876920    -0.08300
C756        C  0.97981846  0.14415080  0.02435449    -0.05700
C757        C  0.99151762  0.12897308  0.00671768     0.00300
C758        C  0.02353911  0.12697205  0.00411617    -0.08200
C759        C  0.03810023  0.11078386  0.98611462     0.62200
H760        H  0.06679281  0.13977315  0.01658717     0.12900
H761        H  0.95548656  0.14545398  0.02679409     0.12900
C762        C  0.98499397  0.17385339  0.05738749     0.62400
F763        F  0.06932570  0.11285666  0.98472415    -0.22800
F764        F  0.02727566  0.11117262  0.95795655    -0.20100
F765        F  0.03170582  0.09273544  0.99850943    -0.19800
F766        F  0.99361947  0.19199183  0.04657179    -0.19800
F767        F  0.99504581  0.17218568  0.08568074    -0.20200
F768        F  0.95362739  0.17293199  0.05783611    -0.22800
C769        C  0.89684112  0.95107874  0.89543680    -0.05700
C770        C  0.89993385  0.93113563  0.90210321     0.00300
C771        C  0.92493284  0.92492581  0.91866076    -0.08300
C772        C  0.94479812  0.93924219  0.92986879    -0.05700
C773        C  0.94162584  0.95937082  0.92372954     0.00300
C774        C  0.91757521  0.96538043  0.90542257    -0.08200
C775        C  0.91420930  0.98644801  0.89523306     0.62200
H776        H  0.87787210  0.95536594  0.88208930     0.12900
H777        H  0.96336141  0.93463620  0.94347037     0.12900
C778        C  0.93181985  0.90330007  0.92302700     0.62400
F779        F  0.89211087  0.98812075  0.87416492    -0.22800
F780        F  0.94126604  0.99304891  0.88323707    -0.20100
F781        F  0.90603572  0.99836471  0.91836253    -0.19800
F782        F  0.93168285  0.89364910  0.89646760    -0.19800
F783        F  0.91044907  0.89482849  0.94121524    -0.20200
F784        F  0.96002511  0.90063109  0.93535801    -0.22800
C785        C  0.96004568  0.03539272  0.93586875    -0.05700
C786        C  0.97427981  0.02510576  0.95831108     0.00300
C787        C  0.98077791  0.03489590  0.98485142    -0.08300
C788        C  0.97307500  0.05480675  0.98774845    -0.05700
C789        C  0.95888526  0.06514077  0.96533225     0.00300
C790        C  0.95235372  0.05534580  0.93876491    -0.08200
C791        C  0.93838624  0.06593854  0.91320167     0.62200
H792        H  0.95524306  0.02764011  0.91577640     0.12900
H793        H  0.97796242  0.06252654  0.00785978     0.12900
C794        C  0.99470861  0.02431412  0.01045751     0.62400
F795        F  0.93751612  0.05423796  0.88848277    -0.22800
F796        F  0.95527734  0.08258578  0.90671735    -0.20100
F797        F  0.90898574  0.07121286  0.91994885    -0.19800
F798        F  0.02421326  0.01918434  0.00391678    -0.19800
F799        F  0.97793817  0.00758623  0.01676835    -0.20200
F800        F  0.99530343  0.03596249  0.03522416    -0.22800
C801        C  0.28415744  0.78154675  0.55152773    -0.05700
C802        C  0.26163679  0.79590553  0.55170131     0.00300
C803        C  0.23377793  0.79241300  0.53753478    -0.08300
C804        C  0.22957837  0.77447593  0.52284021    -0.05700
C805        C  0.25262889  0.76046841  0.52163830     0.00300
C806        C  0.28023979  0.76382221  0.53629093    -0.08200
C807        C  0.30551119  0.74887994  0.53529827     0.62200
H808        H  0.30530787  0.78467894  0.56255104     0.12900
H809        H  0.20865604  0.77148591  0.51135145     0.12900
C810        C  0.20886762  0.80761625  0.53793071     0.62400
F811        F  0.32956195  0.75436775  0.55283916    -0.22800
F812        F  0.31620162  0.74700171  0.50709126    -0.20100
F813        F  0.29468691  0.73087035  0.54476168    -0.19800
F814        F  0.21906759  0.82466054  0.52472370    -0.19800
F815        F  0.20067574  0.81175175  0.56638355    -0.20200
F816        F  0.18330467  0.80110508  0.52332364    -0.22800
C817        C  0.27973909  0.82338126  0.02382097    -0.05700
C818        C  0.25193885  0.82301223  0.00928801     0.00300
C819        C  0.23375287  0.80578246  0.00959102    -0.08300
C820        C  0.24390423  0.78940015  0.02519796    -0.05700
C821        C  0.27146331  0.78990975  0.04018875     0.00300
C822        C  0.28989112  0.80701555  0.03939856    -0.08200
C823        C  0.32041665  0.80773067  0.05437099     0.62200
H824        H  0.29349741  0.83662222  0.02272486     0.12900
H825        H  0.23035351  0.77606084  0.02594600     0.12900
C826        C  0.20408866  0.80468671  0.99311680     0.62400
F827        F  0.33495404  0.82565013  0.05054811    -0.22800
F828        F  0.33883960  0.79321843  0.04302768    -0.20100
F829        F  0.31660582  0.80475803  0.08389414    -0.19800
F830        F  0.20909044  0.80912221  0.96413388    -0.19800
F831        F  0.18384797  0.81796514  0.00487321    -0.20200
F832        F  0.19100641  0.78615175  0.99450178    -0.22800
C833        C  0.04483902  0.95036900  0.97240593    -0.05700
C834        C  0.04488896  0.96891137  0.95917390     0.00300
C835        C  0.07257819  0.97717618  0.94914939    -0.08300
C836        C  0.09903076  0.96590259  0.95114736    -0.05700
C837        C  0.09865236  0.94679605  0.96261079     0.00300
C838        C  0.07126828  0.93908047  0.97446954    -0.08200
C839        C  0.06927268  0.91885708  0.98822619     0.62200
H840        H  0.02345665  0.94451590  0.98036188     0.12900
H841        H  0.12021967  0.97162019  0.94253851     0.12900
C842        C  0.07406569  0.99723586  0.93488523     0.62400
F843        F  0.03969636  0.91359286  0.99509610    -0.22800
F844        F  0.08562870  0.91883390  0.01373766    -0.20100
F845        F  0.08051763  0.90479150  0.96933150    -0.19800
F846        F  0.06609344  0.01153664  0.95488131    -0.19800
F847        F  0.05447346  0.99775166  0.91154277    -0.20200
F848        F  0.10290754  0.00168555  0.92467552    -0.22800
C849        C  0.29114884  0.89826377  0.79368441    -0.05700
C850        C  0.26077952  0.89358198  0.79985762     0.00300
C851        C  0.24191638  0.88598461  0.77761362    -0.08300
C852        C  0.25419686  0.88369254  0.74954338    -0.05700
C853        C  0.28453473  0.88851248  0.74323243     0.00300
C854        C  0.30352162  0.89585071  0.76562228    -0.08200
C855        C  0.33688925  0.90039026  0.76040824     0.62200
H856        H  0.30519641  0.90373302  0.81123378     0.12900
H857        H  0.24016565  0.87793179  0.73219003     0.12900
C858        C  0.20942166  0.87952946  0.78364916     0.62400
F859        F  0.35202923  0.90410345  0.78615834    -0.22800
F860        F  0.33990612  0.91684411  0.74315884    -0.20100
F861        F  0.35074799  0.88461973  0.74687941    -0.19800
F862        F  0.19195136  0.89568603  0.79031904    -0.19800
F863        F  0.20857018  0.86654668  0.80670038    -0.20200
F864        F  0.19658716  0.87018493  0.75985280    -0.22800
C865        C  0.37433250  0.11950009  0.44227081    -0.05700
C866        C  0.37131321  0.12896506  0.41537365     0.00300
C867        C  0.39471804  0.12721330  0.39417515    -0.08300
C868        C  0.42077482  0.11655249  0.40124109    -0.05700
C869        C  0.42404658  0.10742530  0.42830214     0.00300
C870        C  0.40024962  0.10851595  0.44906527    -0.08200
C871        C  0.40273772  0.09889519  0.47865877     0.62200
H872        H  0.35627243  0.12107877  0.45817639     0.12900
H873        H  0.43919701  0.11538429  0.38563224     0.12900
C874        C  0.39292598  0.13685011  0.36447846     0.62400
F875        F  0.37788641  0.10285319  0.49620398    -0.22800
F876        F  0.42839095  0.10576367  0.49270564    -0.20100
F877        F  0.40448870  0.07874789  0.47530276    -0.19800
F878        F  0.38502258  0.15637740  0.36731773    -0.19800
F879        F  0.37168201  0.12707001  0.34772882    -0.20200
F880        F  0.42036853  0.13620388  0.34972138    -0.22800
C881        C  0.55826711  0.93905060  0.51192759    -0.05700
C882        C  0.55451764  0.95309823  0.48993976     0.00300
C883        C  0.57853866  0.95640512  0.46970651    -0.08300
C884        C  0.60584927  0.94604679  0.47317112    -0.05700
C885        C  0.60949979  0.93242195  0.49561517     0.00300
C886        C  0.58508774  0.92836570  0.51480665    -0.08200
C887        C  0.58694026  0.91242607  0.53775464     0.62200
H888        H  0.53986632  0.93648793  0.52717763     0.12900
H889        H  0.62473610  0.94857524  0.45844036     0.12900
C890        C  0.57529179  0.97020411  0.44408670     0.62400
F891        F  0.55917202  0.90897343  0.55108889    -0.22800
F892        F  0.60733472  0.91792127  0.55901935    -0.20100
F893        F  0.59619786  0.89500980  0.52503616    -0.19800
F894        F  0.57387678  0.98940047  0.45389079    -0.19800
F895        F  0.54924480  0.96556296  0.42882788    -0.20200
F896        F  0.59958069  0.96885551  0.42496609    -0.22800
C897        C  0.41795491  0.91929859  0.52153469    -0.05700
C898        C  0.39566835  0.93001047  0.53631714     0.00300
C899        C  0.39634662  0.95075581  0.53535185    -0.08300
C900        C  0.42124273  0.96013899  0.52193852    -0.05700
C901        C  0.44490766  0.94945124  0.50883429     0.00300
C902        C  0.44243693  0.92859230  0.50733241    -0.08200
C903        C  0.46495720  0.91592016  0.49071826     0.62200
H904        H  0.41650189  0.90341995  0.52193718     0.12900
H905        H  0.42269784  0.97601665  0.52243177     0.12900
C906        C  0.37068038  0.96296577  0.54783692     0.62400
F907        F  0.45400009  0.89699518  0.48659549    -0.22800
F908        F  0.49170436  0.91467826  0.50605670    -0.20100
F909        F  0.47061000  0.92380645  0.46351011    -0.19800
F910        F  0.37183825  0.96294011  0.57784577    -0.19800
F911        F  0.34305411  0.95534099  0.53894812    -0.20200
F912        F  0.37244173  0.98226384  0.53857823    -0.22800
C913        C  0.51307583  0.02460149  0.48243193    -0.05700
C914        C  0.49039823  0.01143487  0.47319695     0.00300
C915        C  0.46585875  0.01857739  0.45658892    -0.08300
C916        C  0.46537812  0.03862492  0.44943748    -0.05700
C917        C  0.48808004  0.05186033  0.45855173     0.00300
C918        C  0.51221295  0.04478129  0.47590527    -0.08200
C919        C  0.53663491  0.05825524  0.48833511     0.62200
H920        H  0.53152296  0.01891920  0.49522499     0.12900
H921        H  0.44697773  0.04413953  0.43645134     0.12900
C922        C  0.44034056  0.00525425  0.44595342     0.62400
F923        F  0.55401484  0.04883705  0.50889717    -0.22800
F924        F  0.52348921  0.07430788  0.50180754    -0.20100
F925        F  0.55587150  0.06451898  0.46632473    -0.19800
F926        F  0.42246449  0.99947824  0.46926811    -0.19800
F927        F  0.45214577  0.98888158  0.43218698    -0.20200
F928        F  0.42182589  0.01463496  0.42630221    -0.22800
C929        C  0.68763714  0.27030159  0.92495488    -0.05700
C930        C  0.70326237  0.27434155  0.95084091     0.00300
C931        C  0.71068861  0.29406467  0.95814860    -0.08300
C932        C  0.70096801  0.30913883  0.93970133    -0.05700
C933        C  0.68492302  0.30509132  0.91411846     0.00300
C934        C  0.67820986  0.28539113  0.90637429    -0.08200
C935        C  0.66044610  0.28034214  0.87913419     0.62200
H936        H  0.68255783  0.25512815  0.91956138     0.12900
H937        H  0.70578616  0.32434042  0.94515334     0.12900
C938        C  0.72947772  0.29929567  0.98469712     0.62400
F939        F  0.65361976  0.26048367  0.87741052    -0.22800
F940        F  0.67727107  0.28531788  0.85476673    -0.20100
F941        F  0.63346094  0.29052242  0.87905974    -0.19800
F942        F  0.75510559  0.28776558  0.98553413    -0.19800
F943        F  0.71251114  0.29640593  0.00968123    -0.20200
F944        F  0.73887394  0.31875565  0.98433646    -0.22800
C945        C  0.86417090  0.11045654  0.97961444    -0.05700
C946        C  0.88886765  0.12164589  0.96935913     0.00300
C947        C  0.88400214  0.14118019  0.95987316    -0.08300
C948        C  0.85503713  0.14930481  0.96334183    -0.05700
C949        C  0.83092870  0.13861564  0.97576794     0.00300
C950        C  0.83502570  0.11850169  0.98246714    -0.08200
C951        C  0.80967849  0.10515831  0.99331489     0.62200
H952        H  0.86787788  0.09548006  0.98646244     0.12900
H953        H  0.85162382  0.16456775  0.95808390     0.12900
C954        C  0.90917535  0.15368727  0.94652506     0.62400
F955        F  0.81197773  0.08686058  0.98027936    -0.22800
F956        F  0.78129762  0.11232427  0.98685129    -0.20100
F957        F  0.81209836  0.10298040  0.02309122    -0.19800
F958        F  0.92452835  0.14297216  0.92555742    -0.19800
F959        F  0.92919962  0.15982306  0.96777597    -0.20200
F960        F  0.89787139  0.17029534  0.93331798    -0.22800
C961        C  0.70088811  0.31657819  0.42976967    -0.05700
C962        C  0.71251363  0.31596249  0.45798811     0.00300
C963        C  0.71937989  0.29768222  0.47076839    -0.08300
C964        C  0.71439626  0.28042841  0.45448587    -0.05700
C965        C  0.70311587  0.28099195  0.42602611     0.00300
C966        C  0.69556973  0.29934206  0.41355498    -0.08200
C967        C  0.68147128  0.30098818  0.38361747     0.62200
H968        H  0.69605035  0.33079239  0.42045804     0.12900
H969        H  0.71961041  0.26627129  0.46377539     0.12900
C970        C  0.73273384  0.29644813  0.50106945     0.62400
F971        F  0.66864206  0.31924234  0.37953055    -0.22800
F972        F  0.65877537  0.28703807  0.38012198    -0.20100
F973        F  0.70348748  0.29841975  0.36247262    -0.19800
F974        F  0.71189699  0.30295309  0.52142664    -0.19800
F975        F  0.75868383  0.30795328  0.50266425    -0.20200
F976        F  0.74040092  0.27740868  0.50818804    -0.22800
C977        C  0.56041088  0.14702066  0.42777387    -0.05700
C978        C  0.58504959  0.13843771  0.41327097     0.00300
C979        C  0.58568933  0.11777394  0.40945672    -0.08300
C980        C  0.55999736  0.10665294  0.41757690    -0.05700
C981        C  0.53431867  0.11546749  0.43004926     0.00300
C982        C  0.53509217  0.13586468  0.43667386    -0.08200
C983        C  0.50979839  0.14592148  0.45355048     0.62200
H984        H  0.56063117  0.16275259  0.43120988     0.12900
H985        H  0.55950734  0.09100440  0.41332779     0.12900
C986        C  0.61324500  0.10729048  0.39722262     0.62400
F987        F  0.51855049  0.16439975  0.46320411    -0.22800
F988        F  0.50197274  0.13490868  0.47773149    -0.20100
F989        F  0.48472244  0.14813093  0.43604560    -0.19800
F990        F  0.63960369  0.11544147  0.40833731    -0.19800
F991        F  0.61367873  0.10867585  0.36726345    -0.20200
F992        F  0.61281046  0.08757444  0.40446699    -0.22800
C993        C  0.73270727  0.19740379  0.17801220    -0.05700
C994        C  0.70655240  0.19669208  0.16090009     0.00300
C995        C  0.67766220  0.19580750  0.17437445    -0.08300
C996        C  0.67593928  0.19617699  0.20493080    -0.05700
C997        C  0.70206291  0.19760070  0.22210489     0.00300
C998        C  0.73103252  0.19796780  0.20856795    -0.08200
C999        C  0.76006721  0.19860036  0.22611925     0.62200
H1000       H  0.75457651  0.19786908  0.16711608     0.12900
H1001       H  0.65403343  0.19559211  0.21573701     0.12900
C1002       C  0.64893327  0.19399735  0.15654898     0.62400
F1003       F  0.78535604  0.19536869  0.20880975    -0.22800
F1004       F  0.75926816  0.18426552  0.24733687    -0.20100
F1005       F  0.76339342  0.21682566  0.23908205    -0.19800
F1006       F  0.65071630  0.17776008  0.13843464    -0.19800
F1007       F  0.64535528  0.21064679  0.13990996    -0.20200
F1008       F  0.62341805  0.19183377  0.17398551    -0.22800
loop_ 
_geom_bond_atom_site_label_1 
_geom_bond_atom_site_label_2 
_geom_bond_distance 
_geom_bond_site_symmetry_2 
_ccdc_geom_bond_type 
N1            N2   1.322       .  A
N1            C5   1.344       .  A
N1           Cu9   2.071       .  S
N2            C3   1.345       .  A
N2           Cu8   2.076       .  S
C3            C4   1.385       .  A
C3            H6   1.081       .  S
C4            C5   1.383       .  A
C4          C965   1.481       .  S
C5            H7   1.080       .  S
Cu8          N11   2.076       .  S
Cu9          N19   2.071       .  S
Cu10         N12   2.067       .  S
Cu10         N18   2.067       .  S
N11          N12   1.322       .  A
N11          C15   1.345       .  A
N12          C13   1.343       .  A
C13          C14   1.383       .  A
C13          H16   1.080       .  S
C14          C15   1.386       .  A
C14         C978   1.480       .  S
C15          H17   1.083       .  S
N18          N19   1.321       .  A
N18          C22   1.344       .  A
N19          C20   1.345       .  A
C20          C21   1.384       .  A
C20          H23   1.081       .  S
C21          C22   1.383       .  A
C21         C997   1.479       .  S
C22          H24   1.082       .  S
N25          N26   1.322   1_554  A
N25          C29   1.345   1_554  A
N25         Cu33   2.076       .  S
N26          C27   1.345       .  A
N26         Cu32   2.076       .  S
C27          C28   1.384       .  A
C27          H30   1.082       .  S
C28          C29   1.385       .  A
C28         C930   1.482       .  S
C29          H31   1.080   1_556  S
Cu32         N35   2.075       .  S
Cu33         N43   2.076       .  S
Cu34         N36   2.070       .  S
Cu34         N42   2.070       .  S
N35          N36   1.321   1_556  A
N35          C39   1.344       .  A
N36          C37   1.344       .  A
C37          C38   1.386   1_554  A
C37          H40   1.080       .  S
C38          C39   1.386       .  A
C38         C949   1.483       .  S
C39          H41   1.090       .  S
N42          N43   1.322       .  A
N42          C46   1.345       .  A
N43          C44   1.346       .  A
C44          C45   1.383       .  A
C44          H47   1.082       .  S
C45          C46   1.382       .  A
C45         C994   1.475       .  S
C46          H48   1.080       .  S
C49          N50   1.353       .  A
C49          N54   1.357       .  A
C49         C901   1.490       .  S
N50          C51   1.357       .  A
C51          N52   1.359       .  A
C51         C882   1.490       .  S
N52          C53   1.363       .  A
C53          N54   1.358       .  A
C53         C914   1.487   1_565  S
C55          N56   1.358       .  A
C55          N60   1.353       .  A
C55         C981   1.482       .  S
N56          C57   1.359       .  A
C57          N58   1.364       .  A
C57         C917   1.492       .  S
N58          C59   1.358       .  A
C59          N60   1.354       .  A
C59         C869   1.481       .  S
N61          N62   1.323       .  A
N61          C65   1.343       .  A
N61         Cu69   2.067       .  S
N62          C63   1.347       .  A
N62         Cu68   2.080       .  S
C63          C64   1.383       .  A
C63          H66   1.081   1_556  S
C64          C65   1.379       .  A
C64         C818   1.473   1_556  S
C65          H67   1.081       .  S
Cu68         N71   2.079       .  S
Cu69         N79   2.066       .  S
Cu70         N72   2.067       .  S
Cu70         N78   2.066       .  S
N71          N72   1.322       .  A
N71          C75   1.347       .  A
N72          C73   1.341       .  A
C73          C74   1.383       .  A
C73          H76   1.082       .  S
C74          C75   1.388       .  A
C74         C837   1.485       .  S
C75          H77   1.078       .  S
N78          N79   1.321       .  A
N78          C82   1.344       .  A
N79          C80   1.343       .  A
C80          C81   1.382       .  A
C80          H83   1.082       .  S
C81          C82   1.383       .  A
C81         C850   1.475       .  S
C82          H84   1.084       .  S
N85          N86   1.322       .  A
N85          C89   1.343       .  A
N85         Cu93   2.062       .  S
N86          C87   1.343       .  A
N86         Cu92   2.068       .  S
C87          C88   1.380       .  A
C87          H90   1.082       .  S
C88          C89   1.379       .  A
C88         C802   1.466       .  S
C89          H91   1.082       .  S
Cu92         N95   2.068       .  S
Cu93        N103   2.062       .  S
Cu94         N96   2.069       .  S
Cu94        N102   2.069       .  S
N95          N96   1.321       .  A
N95          C99   1.344       .  A
N96          C97   1.343       .  A
C97          C98   1.383       .  A
C97         H100   1.081       .  S
C98          C99   1.383       .  A
C98         C898   1.477       .  S
C99         H101   1.083       .  S
N102        N103   1.321       .  A
N102        C106   1.344       .  A
N103        C104   1.342       .  A
C104        C105   1.383       .  A
C104        H107   1.082       .  S
C105        C106   1.385       .  A
C105        C853   1.479       .  S
C106        H108   1.080       .  S
C109        N110   1.357       .  A
C109        N114   1.356       .  A
C109        C773   1.491       .  S
N110        C111   1.360   1_565  A
C111        N112   1.360   1_645  A
C111        C786   1.483       .  S
N112        C113   1.358       .  A
C113        N114   1.355   1_455  A
C113        C834   1.480       .  S
C115        N116   1.356       .  A
C115        N120   1.354       .  A
C115        C757   1.492   1_556  S
N116        C117   1.361       .  A
C117        N118   1.363       .  A
C117        C789   1.485       .  S
N118        C119   1.362       .  A
C119        N120   1.352       .  A
C119        C946   1.482       .  S
N121        N122   1.322       .  A
N121        C125   1.346       .  A
N121       Cu129   2.075       .  S
N122        C123   1.346       .  A
N122       Cu128   2.076       .  S
C123        C124   1.384       .  A
C123        H126   1.081       .  S
C124        C125   1.383       .  A
C124        C725   1.480       .  S
C125        H127   1.081       .  S
Cu128       N131   2.076       .  S
Cu129       N139   2.075       .  S
Cu130       N132   2.073       .  S
Cu130       N138   2.074       .  S
N131        N132   1.323       .  A
N131        C135   1.345       .  A
N132        C133   1.346       .  A
C133        C134   1.381       .  A
C133        H136   1.083       .  S
C134        C135   1.380       .  A
C134        C754   1.472       .  S
C135        H137   1.083       .  S
N138        N139   1.323       .  A
N138        C142   1.345       .  A
N139        C140   1.345       .  A
C140        C141   1.382       .  A
C140        H143   1.082       .  S
C141        C142   1.383       .  A
C141        C738   1.476       .  S
C142        H144   1.080       .  S
N145        N146   1.322       .  A
N145        C149   1.342       .  A
N145       Cu153   2.060       .  S
N146        C147   1.348       .  A
N146       Cu152   2.087       .  S
C147        C148   1.386       .  A
C147        H150   1.082       .  S
C148        C149   1.379       .  A
C148        C709   1.476       .  S
C149        H151   1.082       .  S
Cu152       N155   2.088       .  S
Cu153       N163   2.060       .  S
Cu154       N156   2.078       .  S
Cu154       N162   2.077       .  S
N155        N156   1.324       .  A
N155        C159   1.346       .  A
N156        C157   1.345       .  A
C157        C158   1.384       .  A
C157        H160   1.078       .  S
C158        C159   1.386       .  A
C158        C866   1.485       .  S
C159        H161   1.082       .  S
N162        N163   1.321       .  A
N162        C166   1.348       .  A
N163        C164   1.341       .  A
C164        C165   1.378       .  A
C164        H167   1.082       .  S
C165        C166   1.385       .  A
C165        C741   1.474       .  S
C166        H168   1.080       .  S
N169        N170   1.322       .  A
N169        C173   1.342       .  A
N169       Cu177   2.061       .  S
N170        C171   1.344       .  A
N170       Cu176   2.070       .  S
C171        C172   1.381       .  A
C171        H174   1.082       .  S
C172        C173   1.379       .  A
C172        C674   1.468       .  S
C173        H175   1.081       .  S
Cu176       N179   2.070       .  S
Cu177       N187   2.061       .  S
Cu178       N180   2.061       .  S
Cu178       N186   2.061       .  S
N179        N180   1.321       .  A
N179        C183   1.344       .  A
N180        C181   1.343       .  A
C181        C182   1.382       .  A
C181        H184   1.082       .  S
C182        C183   1.384       .  A
C182        C770   1.476       .  S
C183        H185   1.080       .  S
N186        N187   1.321       .  A
N186        C190   1.341       .  A
N187        C188   1.343       .  A
C188        C189   1.382       .  A
C188        H191   1.081       .  S
C189        C190   1.381       .  A
C189        C690   1.472       .  S
C190        H192   1.082       .  S
N193        N194   1.323       .  A
N193        C197   1.341       .  A
N193       Cu201   2.057       .  S
N194        C195   1.348       .  A
N194       Cu200   2.086       .  S
C195        C196   1.385       .  A
C195        H198   1.082       .  S
C196        C197   1.378       .  A
C196        C658   1.474       .  S
C197        H199   1.080       .  S
Cu200       N203   2.086       .  S
Cu201       N211   2.056       .  S
Cu202       N204   2.069       .  S
Cu202       N210   2.067       .  S
N203        N204   1.323       .  A
N203        C207   1.348       .  A
N204        C205   1.343       .  A
C205        C206   1.380       .  A
C205        H208   1.082       .  S
C206        C207   1.384       .  A
C206        C885   1.477       .  S
C207        H209   1.082       .  S
N210        N211   1.320       .  A
N210        C214   1.343       .  A
N211        C212   1.343       .  A
C212        C213   1.382       .  A
C212        H215   1.083       .  S
C213        C214   1.384       .  A
C213        C693   1.474       .  S
C214        H216   1.081       .  S
C217        N218   1.355       .  A
C217        N222   1.354       .  A
C217        C610   1.474       .  S
N218        C219   1.357       .  A
C219        N220   1.365       .  A
C219        C626   1.490       .  S
N220        C221   1.364       .  A
C221        N222   1.355       .  A
C221        C642   1.486       .  S
C223        N224   1.352   1_554  A
C223        N228   1.360   1_554  A
C223        C594   1.492       .  S
N224        C225   1.355       .  A
C225        N226   1.358       .  A
C225        C578   1.484       .  S
N226        C227   1.363       .  A
C227        N228   1.360       .  A
C227        C645   1.490       .  S
N229        N230   1.322       .  A
N229        C233   1.343       .  A
N229       Cu237   2.064       .  S
N230        C231   1.345       .  A
N230       Cu236   2.071       .  S
C231        C232   1.382       .  A
C231        H234   1.082       .  S
C232        C233   1.381       .  A
C232        C962   1.474       .  S
C233        H235   1.082       .  S
Cu236       N239   2.071       .  S
Cu237       N247   2.064       .  S
Cu238       N240   2.067       .  S
Cu238       N246   2.066       .  S
N239        N240   1.322       .  A
N239        C243   1.344       .  A
N240        C241   1.344       .  A
C241        C242   1.382       .  A
C241        H244   1.081       .  S
C242        C243   1.381       .  A
C242        C546   1.474       .  S
C243        H245   1.081       .  S
N246        N247   1.321       .  A
N246        C250   1.344       .  A
N247        C248   1.343       .  A
C248        C249   1.382       .  A
C248        H251   1.082       .  S
C249        C250   1.383       .  A
C249        C562   1.477       .  S
C250        H252   1.081       .  S
N253        N254   1.323       .  A
N253        C257   1.346       .  A
N253       Cu261   2.075       .  S
N254        C255   1.344       .  A
N254       Cu260   2.074       .  S
C255        C256   1.382       .  A
C255        H258   1.084       .  S
C256        C257   1.384       .  A
C256        C933   1.478       .  S
C257        H259   1.081       .  S
Cu260       N263   2.074       .  S
Cu261       N271   2.075       .  S
Cu262       N264   2.059       .  S
Cu262       N270   2.059       .  S
N263        N264   1.321       .  A
N263        C267   1.344       .  A
N264        C265   1.344       .  A
C265        C266   1.380       .  A
C265        H268   1.082       .  S
C266        C267   1.382       .  A
C266        C613   1.471       .  S
C267        H269   1.082       .  S
N270        N271   1.323       .  A
N270        C274   1.342       .  A
N271        C272   1.345       .  A
C272        C273   1.382       .  A
C272        H275   1.082       .  S
C273        C274   1.378       .  A
C273        C565   1.470       .  S
C274        H276   1.084       .  S
N277        N278   1.322       .  A
N277        C281   1.341       .  A
N277       Cu285   2.060       .  S
N278        C279   1.345       .  A
N278       Cu284   2.070       .  S
C279        C280   1.381       .  A
C279        H282   1.082       .  S
C280        C281   1.377       .  A
C280        C805   1.466       .  S
C281        H283   1.082       .  S
Cu284       N287   2.069       .  S
Cu285       N295   2.060       .  S
Cu286       N288   2.064       .  S
Cu286       N294   2.064       .  S
N287        N288   1.322       .  A
N287        C291   1.345       .  A
N288        C289   1.341       .  A
C289        C290   1.381       .  A
C289        H292   1.082       .  S
C290        C291   1.384       .  A
C290        C517   1.476       .  S
C291        H293   1.080       .  S
N294        N295   1.320       .  A
N294        C298   1.343       .  A
N295        C296   1.343       .  A
C296        C297   1.382       .  A
C296        H299   1.082       .  S
C297        C298   1.382       .  A
C297        C533   1.474       .  S
C298        H300   1.082       .  S
N301        N302   1.323       .  A
N301        C305   1.346       .  A
N301       Cu309   2.074       .  S
N302        C303   1.346       .  A
N302       Cu308   2.076       .  S
C303        C304   1.381       .  A
C303        H306   1.082       .  S
C304        C305   1.382       .  A
C304        C821   1.474       .  S
C305        H307   1.081       .  S
Cu308       N311   2.076       .  S
Cu309       N319   2.074       .  S
Cu310       N312   2.075       .  S
Cu310       N318   2.074       .  S
N311        N312   1.321       .  A
N311        C315   1.344       .  A
N312        C313   1.345       .  A
C313        C314   1.386       .  A
C313        H316   1.083       .  S
C314        C315   1.385       .  A
C314        C597   1.484       .  S
C315        H317   1.081       .  S
N318        N319   1.323       .  A
N318        C322   1.344       .  A
N319        C320   1.345       .  A
C320        C321   1.383       .  A
C320        H323   1.082       .  S
C321        C322   1.382       .  A
C321        C530   1.476       .  S
C322        H324   1.084       .  S
N325        N326   1.323       .  A
N325        C329   1.342       .  A
N325       Cu333   2.063   1_556  S
N326        C327   1.345       .  A
N326       Cu332   2.074       .  S
C327        C328   1.381       .  A
C327        H330   1.082       .  S
C328        C329   1.378       .  A
C328        C677   1.467       .  S
C329        H331   1.081       .  S
Cu332       N335   2.074       .  S
Cu333       N343   2.063       .  S
Cu334       N336   2.070       .  S
Cu334       N342   2.069       .  S
N335        N336   1.322   1_556  A
N335        C339   1.346       .  A
N336        C337   1.344       .  A
C337        C338   1.381       .  A
C337        H340   1.080       .  S
C338        C339   1.383   1_554  A
C338        C581   1.475       .  S
C339        H341   1.082       .  S
N342        N343   1.321       .  A
N342        C346   1.344       .  A
N343        C344   1.344       .  A
C344        C345   1.381       .  A
C344        H347   1.082       .  S
C345        C346   1.382       .  A
C345        C498   1.473       .  S
C346        H348   1.082       .  S
N349        N350   1.322       .  A
N349        C353   1.344       .  A
N349       Cu357   2.068       .  S
N350        C351   1.345       .  A
N350       Cu356   2.078       .  S
C351        C352   1.385       .  A
C351        H354   1.082       .  S
C352        C353   1.383       .  A
C352        C661   1.479       .  S
C353        H355   1.079       .  S
Cu356       N359   2.078       .  S
Cu357       N367   2.068       .  S
Cu358       N360   2.062       .  S
Cu358       N366   2.062       .  S
N359        N360   1.323       .  A
N359        C363   1.345       .  A
N360        C361   1.343       .  A
C361        C362   1.378       .  A
C361        H364   1.082       .  S
C362        C363   1.382       .  A
C362        C482   1.470       .  S
C363        H365   1.082       .  S
N366        N367   1.321       .  A
N366        C370   1.344       .  A
N367        C368   1.343       .  A
C368        C369   1.382       .  A
C368        H371   1.083       .  S
C369        C370   1.381       .  A
C369        C501   1.472       .  S
C370        H372   1.083       .  S
C373        N374   1.356       .  A
C373        N378   1.357   1_455  A
C373        C450   1.476       .  S
N374        C375   1.356   1_455  A
C375        N376   1.356       .  A
C375        C466   1.470       .  S
N376        C377   1.355       .  A
C377        N378   1.357       .  A
C377        C549   1.473       .  S
C379        N380   1.355       .  A
C379        N384   1.358       .  A
C379        C514   1.486       .  S
N380        C381   1.357   1_455  A
C381        N382   1.357       .  A
C381        C469   1.475       .  S
N382        C383   1.356       .  A
C383        N384   1.358   1_655  A
C383        C485   1.484       .  S
N385        N386   1.323       .  A
N385        C389   1.345       .  A
N385       Cu393   2.079       .  S
N386        C387   1.348       .  A
N386       Cu392   2.087       .  S
C387        C388   1.385       .  A
C387        H390   1.081   1_556  S
C388        C389   1.382       .  A
C388        C722   1.480       .  S
C389        H391   1.081       .  S
Cu392       N395   2.087       .  S
Cu393       N403   2.078       .  S
Cu394       N396   2.073       .  S
Cu394       N402   2.072       .  S
N395        N396   1.322       .  A
N395        C399   1.347       .  A
N396        C397   1.345       .  A
C397        C398   1.384       .  A
C397        H400   1.082       .  S
C398        C399   1.387       .  A
C398        C629   1.484       .  S
C399        H401   1.081       .  S
N402        N403   1.322       .  A
N402        C406   1.344       .  A
N403        C404   1.346       .  A
C404        C405   1.384       .  A
C404        H407   1.082       .  S
C405        C406   1.382       .  A
C405        C434   1.477       .  S
C406        H408   1.082       .  S
N409        N410   1.323       .  A
N409        C413   1.348       .  A
N409       Cu417   2.084       .  S
N410        C411   1.343       .  A
N410       Cu416   2.069       .  S
C411        C412   1.380       .  A
C411        H414   1.082       .  S
C412        C413   1.384       .  A
C412        C706   1.476       .  S
C413        H415   1.081       .  S
Cu416       N419   2.068       .  S
Cu417       N427   2.084       .  S
Cu418       N420   2.064       .  S
Cu418       N426   2.064       .  S
N419        N420   1.321       .  A
N419        C423   1.344       .  A
N420        C421   1.344       .  A
C421        C422   1.380       .  A
C421        H424   1.081       .  S
C422        C423   1.381       .  A
C422        C453   1.471       .  S
C423        H425   1.082       .  S
N426        N427   1.322       .  A
N426        C430   1.343       .  A
N427        C428   1.346       .  A
C428        C429   1.387       .  A
C428        H431   1.084       .  S
C429        C430   1.383       .  A
C429        C437   1.483       .  S
C430        H432   1.082       .  S
C433        C434   1.402       .  A
C433        C438   1.408       .  A
C433        H440   1.083       .  S
C434        C435   1.413       .  A
C435        C436   1.406       .  A
C435        C442   1.518       .  S
C436        C437   1.406       .  A
C436        H441   1.083       .  S
C437        C438   1.419       .  A
C438        C439   1.519       .  S
C439        F443   1.385       .  S
C439        F444   1.383       .  S
C439        F445   1.381       .  S
C442        F446   1.383       .  S
C442        F447   1.382       .  S
C442        F448   1.385       .  S
C449        C450   1.404       .  A
C449        C454   1.403       .  A
C449        H456   1.084       .  S
C450        C451   1.418       .  A
C451        C452   1.406       .  A
C451        C458   1.519       .  S
C452        C453   1.401       .  A
C452        H457   1.084       .  S
C453        C454   1.414       .  A
C454        C455   1.519       .  S
C455        F459   1.385       .  S
C455        F460   1.382       .  S
C455        F461   1.383       .  S
C458        F462   1.382       .  S
C458        F463   1.384       .  S
C458        F464   1.385       .  S
C465        C466   1.400       .  A
C465        C470   1.404       .  A
C465        H472   1.083       .  S
C466        C467   1.415   1_655  A
C467        C468   1.405       .  A
C467        C474   1.519       .  S
C468        C469   1.404   1_455  A
C468        H473   1.083       .  S
C469        C470   1.418       .  A
C470        C471   1.519       .  S
C471        F475   1.385       .  S
C471        F476   1.384   1_655  S
C471        F477   1.381       .  S
C474        F478   1.382       .  S
C474        F479   1.383   1_455  S
C474        F480   1.385       .  S
C481        C482   1.399       .  A
C481        C486   1.408       .  A
C481        H488   1.084       .  S
C482        C483   1.412       .  A
C483        C484   1.403       .  A
C483        C490   1.519       .  S
C484        C485   1.406       .  A
C484        H489   1.083       .  S
C485        C486   1.423       .  A
C486        C487   1.520       .  S
C487        F491   1.385       .  S
C487        F492   1.383       .  S
C487        F493   1.382       .  S
C490        F494   1.383       .  S
C490        F495   1.382       .  S
C490        F496   1.384       .  S
C497        C498   1.402       .  A
C497        C502   1.407       .  A
C497        H504   1.084       .  S
C498        C499   1.417       .  A
C499        C500   1.404       .  A
C499        C506   1.519       .  S
C500        C501   1.400       .  A
C500        H505   1.084       .  S
C501        C502   1.416       .  A
C502        C503   1.519       .  S
C503        F507   1.384       .  S
C503        F508   1.382       .  S
C503        F509   1.384       .  S
C506        F510   1.381       .  S
C506        F511   1.383       .  S
C506        F512   1.384       .  S
C513        C514   1.406       .  A
C513        C518   1.404       .  A
C513        H520   1.083       .  S
C514        C515   1.423       .  A
C515        C516   1.406       .  A
C515        C522   1.521       .  S
C516        C517   1.401       .  A
C516        H521   1.083       .  S
C517        C518   1.416       .  A
C518        C519   1.520       .  S
C519        F523   1.385       .  S
C519        F524   1.383       .  S
C519        F525   1.381       .  S
C522        F526   1.383       .  S
C522        F527   1.383       .  S
C522        F528   1.385       .  S
C529        C530   1.402       .  A
C529        C534   1.406       .  A
C529        H536   1.084       .  S
C530        C531   1.416       .  A
C531        C532   1.405       .  A
C531        C538   1.518       .  S
C532        C533   1.402       .  A
C532        H537   1.084       .  S
C533        C534   1.416       .  A
C534        C535   1.519       .  S
C535        F539   1.384       .  S
C535        F540   1.383       .  S
C535        F541   1.381       .  S
C538        F542   1.383       .  S
C538        F543   1.381       .  S
C538        F544   1.385       .  S
C545        C546   1.403       .  A
C545        C550   1.407       .  A
C545        H552   1.083       .  S
C546        C547   1.417       .  A
C547        C548   1.402       .  A
C547        C554   1.520       .  S
C548        C549   1.402       .  A
C548        H553   1.083       .  S
C549        C550   1.416       .  A
C550        C551   1.519       .  S
C551        F555   1.385       .  S
C551        F556   1.383       .  S
C551        F557   1.382       .  S
C554        F558   1.383       .  S
C554        F559   1.381       .  S
C554        F560   1.385       .  S
C561        C562   1.403       .  A
C561        C566   1.405       .  A
C561        H568   1.084       .  S
C562        C563   1.420       .  A
C563        C564   1.405       .  A
C563        C570   1.520       .  S
C564        C565   1.399       .  A
C564        H569   1.084       .  S
C565        C566   1.414       .  A
C566        C567   1.519       .  S
C567        F571   1.384       .  S
C567        F572   1.382       .  S
C567        F573   1.384       .  S
C570        F574   1.381       .  S
C570        F575   1.383       .  S
C570        F576   1.385       .  S
C577        C578   1.405   1_554  A
C577        C582   1.401       .  A
C577        H584   1.083       .  S
C578        C579   1.420       .  A
C579        C580   1.411       .  A
C579        C586   1.518       .  S
C580        C581   1.403   1_556  A
C580        H585   1.083       .  S
C581        C582   1.414       .  A
C582        C583   1.521       .  S
C583        F587   1.385       .  S
C583        F588   1.383       .  S
C583        F589   1.381       .  S
C586        F590   1.383       .  S
C586        F591   1.382       .  S
C586        F592   1.385       .  S
C593        C594   1.407       .  A
C593        C598   1.408       .  A
C593        H600   1.082       .  S
C594        C595   1.425       .  A
C595        C596   1.406       .  A
C595        C602   1.523   1_554  S
C596        C597   1.402       .  A
C596        H601   1.083       .  S
C597        C598   1.416       .  A
C598        C599   1.519       .  S
C599        F603   1.385       .  S
C599        F604   1.383       .  S
C599        F605   1.380       .  S
C602        F606   1.384       .  S
C602        F607   1.383   1_556  S
C602        F608   1.385       .  S
C609        C610   1.404       .  A
C609        C614   1.404       .  A
C609        H616   1.083       .  S
C610        C611   1.418       .  A
C611        C612   1.405       .  A
C611        C618   1.520       .  S
C612        C613   1.401       .  A
C612        H617   1.084       .  S
C613        C614   1.412       .  A
C614        C615   1.517       .  S
C615        F619   1.385       .  S
C615        F620   1.384       .  S
C615        F621   1.381       .  S
C618        F622   1.384       .  S
C618        F623   1.381       .  S
C618        F624   1.385       .  S
C625        C626   1.406       .  A
C625        C630   1.408       .  A
C625        H632   1.083       .  S
C626        C627   1.424       .  A
C627        C628   1.408       .  A
C627        C634   1.520       .  S
C628        C629   1.402       .  A
C628        H633   1.083       .  S
C629        C630   1.416       .  A
C630        C631   1.517       .  S
C631        F635   1.385       .  S
C631        F636   1.384       .  S
C631        F637   1.381       .  S
C634        F638   1.383       .  S
C634        F639   1.382       .  S
C634        F640   1.385       .  S
C641        C642   1.403       .  A
C641        C646   1.409       .  A
C641        H648   1.083       .  S
C642        C643   1.421       .  A
C643        C644   1.407       .  A
C643        C650   1.521       .  S
C644        C645   1.405       .  A
C644        H649   1.083       .  S
C645        C646   1.422       .  A
C646        C647   1.520       .  S
C647        F651   1.385       .  S
C647        F652   1.384       .  S
C647        F653   1.382       .  S
C650        F654   1.382       .  S
C650        F655   1.383   1_556  S
C650        F656   1.385   1_556  S
C657        C658   1.400       .  A
C657        C662   1.407       .  A
C657        H664   1.083       .  S
C658        C659   1.415       .  A
C659        C660   1.406       .  A
C659        C666   1.519       .  S
C660        C661   1.403       .  A
C660        H665   1.083       .  S
C661        C662   1.419       .  A
C662        C663   1.519       .  S
C663        F667   1.385       .  S
C663        F668   1.381       .  S
C663        F669   1.384       .  S
C666        F670   1.383       .  S
C666        F671   1.381       .  S
C666        F672   1.384       .  S
C673        C674   1.402       .  A
C673        C678   1.404       .  A
C673        H680   1.084       .  S
C674        C675   1.412       .  A
C675        C676   1.404       .  A
C675        C682   1.516       .  S
C676        C677   1.401       .  A
C676        H681   1.084       .  S
C677        C678   1.412       .  A
C678        C679   1.517       .  S
C679        F683   1.385       .  S
C679        F684   1.383       .  S
C679        F685   1.383       .  S
C682        F686   1.383       .  S
C682        F687   1.382       .  S
C682        F688   1.385       .  S
C689        C690   1.403       .  A
C689        C694   1.404       .  A
C689        H696   1.083       .  S
C690        C691   1.415       .  A
C691        C692   1.403       .  A
C691        C698   1.519       .  S
C692        C693   1.403       .  A
C692        H697   1.083       .  S
C693        C694   1.416       .  A
C694        C695   1.519       .  S
C695        F699   1.385       .  S
C695        F700   1.383       .  S
C695        F701   1.380       .  S
C698        F702   1.383       .  S
C698        F703   1.381       .  S
C698        F704   1.385       .  S
C705        C706   1.401       .  A
C705        C710   1.406       .  A
C705        H712   1.084       .  S
C706        C707   1.415       .  A
C707        C708   1.408       .  A
C707        C714   1.517       .  S
C708        C709   1.402       .  A
C708        H713   1.083       .  S
C709        C710   1.415       .  A
C710        C711   1.518       .  S
C711        F715   1.385       .  S
C711        F716   1.382       .  S
C711        F717   1.383       .  S
C714        F718   1.383       .  S
C714        F719   1.382       .  S
C714        F720   1.385       .  S
C721        C722   1.402       .  A
C721        C726   1.408       .  A
C721        H728   1.084       .  S
C722        C723   1.416   1_556  A
C723        C724   1.408       .  A
C723        C730   1.517       .  S
C724        C725   1.403       .  A
C724        H729   1.084       .  S
C725        C726   1.417   1_554  A
C726        C727   1.519       .  S
C727        F731   1.385       .  S
C727        F732   1.381       .  S
C727        F733   1.384   1_556  S
C730        F734   1.383       .  S
C730        F735   1.382       .  S
C730        F736   1.385       .  S
C737        C738   1.403       .  A
C737        C742   1.407       .  A
C737        H744   1.083       .  S
C738        C739   1.416       .  A
C739        C740   1.406       .  A
C739        C746   1.518       .  S
C740        C741   1.401       .  A
C740        H745   1.083       .  S
C741        C742   1.414       .  A
C742        C743   1.518       .  S
C743        F747   1.385       .  S
C743        F748   1.382       .  S
C743        F749   1.384       .  S
C746        F750   1.381       .  S
C746        F751   1.383       .  S
C746        F752   1.385       .  S
C753        C754   1.400       .  A
C753        C758   1.410       .  A
C753        H760   1.084       .  S
C754        C755   1.409   1_455  A
C755        C756   1.402       .  A
C755        C762   1.519       .  S
C756        C757   1.410       .  A
C756        H761   1.083       .  S
C757        C758   1.425   1_655  A
C758        C759   1.520   1_554  S
C759        F763   1.385       .  S
C759        F764   1.383       .  S
C759        F765   1.383       .  S
C762        F766   1.383       .  S
C762        F767   1.383       .  S
C762        F768   1.385       .  S
C769        C770   1.402       .  A
C769        C774   1.407       .  A
C769        H776   1.084       .  S
C770        C771   1.414       .  A
C771        C772   1.403       .  A
C771        C778   1.521       .  S
C772        C773   1.409       .  A
C772        H777   1.083       .  S
C773        C774   1.423       .  A
C774        C775   1.520       .  S
C775        F779   1.385       .  S
C775        F780   1.384       .  S
C775        F781   1.382       .  S
C778        F782   1.384       .  S
C778        F783   1.380       .  S
C778        F784   1.385       .  S
C785        C786   1.405       .  A
C785        C790   1.409       .  A
C785        H792   1.083       .  S
C786        C787   1.417       .  A
C787        C788   1.406       .  A
C787        C794   1.520   1_556  S
C788        C789   1.405       .  A
C788        H793   1.083   1_556  S
C789        C790   1.419       .  A
C790        C791   1.519       .  S
C791        F795   1.385       .  S
C791        F796   1.383       .  S
C791        F797   1.382       .  S
C794        F798   1.382   1_655  S
C794        F799   1.383       .  S
C794        F800   1.385       .  S
C801        C802   1.400       .  A
C801        C806   1.402       .  A
C801        H808   1.084       .  S
C802        C803   1.413       .  A
C803        C804   1.404       .  A
C803        C810   1.517       .  S
C804        C805   1.401       .  A
C804        H809   1.084       .  S
C805        C806   1.412       .  A
C806        C807   1.517       .  S
C807        F811   1.385       .  S
C807        F812   1.383       .  S
C807        F813   1.383       .  S
C810        F814   1.383       .  S
C810        F815   1.383       .  S
C810        F816   1.385       .  S
C817        C818   1.401       .  A
C817        C822   1.406       .  A
C817        H824   1.083       .  S
C818        C819   1.415       .  A
C819        C820   1.408       .  A
C819        C826   1.518   1_554  S
C820        C821   1.402       .  A
C820        H825   1.083       .  S
C821        C822   1.415       .  A
C822        C823   1.517       .  S
C823        F827   1.385       .  S
C823        F828   1.383       .  S
C823        F829   1.382       .  S
C826        F830   1.383       .  S
C826        F831   1.382   1_556  S
C826        F832   1.385       .  S
C833        C834   1.404       .  A
C833        C838   1.407       .  A
C833        H840   1.083       .  S
C834        C835   1.415       .  A
C835        C836   1.407       .  A
C835        C842   1.519       .  S
C836        C837   1.406       .  A
C836        H841   1.082       .  S
C837        C838   1.419       .  A
C838        C839   1.520       .  S
C839        F843   1.385       .  S
C839        F844   1.381   1_556  S
C839        F845   1.383       .  S
C842        F846   1.382   1_565  S
C842        F847   1.383       .  S
C842        F848   1.385   1_565  S
C849        C850   1.402       .  A
C849        C854   1.407       .  A
C849        H856   1.083       .  S
C850        C851   1.416       .  A
C851        C852   1.405       .  A
C851        C858   1.520       .  S
C852        C853   1.404       .  A
C852        H857   1.083       .  S
C853        C854   1.418       .  A
C854        C855   1.519       .  S
C855        F859   1.384       .  S
C855        F860   1.381       .  S
C855        F861   1.384       .  S
C858        F862   1.381       .  S
C858        F863   1.383       .  S
C858        F864   1.385       .  S
C865        C866   1.405       .  A
C865        C870   1.410       .  A
C865        H872   1.083       .  S
C866        C867   1.420       .  A
C867        C868   1.406       .  A
C867        C874   1.521       .  S
C868        C869   1.402       .  A
C868        H873   1.084       .  S
C869        C870   1.416       .  A
C870        C871   1.518       .  S
C871        F875   1.384       .  S
C871        F876   1.383       .  S
C871        F877   1.383       .  S
C874        F878   1.383       .  S
C874        F879   1.381       .  S
C874        F880   1.385       .  S
C881        C882   1.407       .  A
C881        C886   1.402       .  A
C881        H888   1.082       .  S
C882        C883   1.422       .  A
C883        C884   1.412       .  A
C883        C890   1.519       .  S
C884        C885   1.402       .  A
C884        H889   1.083       .  S
C885        C886   1.414       .  A
C886        C887   1.520       .  S
C887        F891   1.385       .  S
C887        F892   1.381       .  S
C887        F893   1.383       .  S
C890        F894   1.382       .  S
C890        F895   1.384       .  S
C890        F896   1.385       .  S
C897        C898   1.400       .  A
C897        C902   1.405       .  A
C897        H904   1.083       .  S
C898        C899   1.414       .  A
C899        C900   1.406       .  A
C899        C906   1.519       .  S
C900        C901   1.408       .  A
C900        H905   1.083       .  S
C901        C902   1.425       .  A
C902        C903   1.521       .  S
C903        F907   1.385       .  S
C903        F908   1.382       .  S
C903        F909   1.384       .  S
C906        F910   1.381       .  S
C906        F911   1.384       .  S
C906        F912   1.385       .  S
C913        C914   1.404       .  A
C913        C918   1.409       .  A
C913        H920   1.083       .  S
C914        C915   1.420       .  A
C915        C916   1.406       .  A
C915        C922   1.521       .  S
C916        C917   1.406       .  A
C916        H921   1.082       .  S
C917        C918   1.424       .  A
C918        C919   1.521       .  S
C919        F923   1.385       .  S
C919        F924   1.384       .  S
C919        F925   1.383       .  S
C922        F926   1.383   1_545  S
C922        F927   1.383   1_545  S
C922        F928   1.385       .  S
C929        C930   1.404       .  A
C929        C934   1.407       .  A
C929        H936   1.083       .  S
C930        C931   1.419       .  A
C931        C932   1.407       .  A
C931        C938   1.519       .  S
C932        C933   1.402       .  A
C932        H937   1.083       .  S
C933        C934   1.415       .  A
C934        C935   1.518       .  S
C935        F939   1.385       .  S
C935        F940   1.381       .  S
C935        F941   1.383       .  S
C938        F942   1.383       .  S
C938        F943   1.381   1_556  S
C938        F944   1.385       .  S
C945        C946   1.404       .  A
C945        C950   1.407       .  A
C945        H952   1.083       .  S
C946        C947   1.421       .  A
C947        C948   1.405       .  A
C947        C954   1.521       .  S
C948        C949   1.403       .  A
C948        H953   1.080       .  S
C949        C950   1.419       .  A
C950        C951   1.517       .  S
C951        F955   1.384       .  S
C951        F956   1.383       .  S
C951        F957   1.383   1_556  S
C954        F958   1.383       .  S
C954        F959   1.382       .  S
C954        F960   1.385       .  S
C961        C962   1.399       .  A
C961        C966   1.406       .  A
C961        H968   1.084       .  S
C962        C963   1.415       .  A
C963        C964   1.406       .  A
C963        C970   1.519       .  S
C964        C965   1.404       .  A
C964        H969   1.084       .  S
C965        C966   1.421       .  A
C966        C967   1.519       .  S
C967        F971   1.385       .  S
C967        F972   1.383       .  S
C967        F973   1.381       .  S
C970        F974   1.382       .  S
C970        F975   1.383       .  S
C970        F976   1.384       .  S
C977        C978   1.402       .  A
C977        C982   1.405       .  A
C977        H984   1.082       .  S
C978        C979   1.418       .  A
C979        C980   1.407       .  A
C979        C986   1.519       .  S
C980        C981   1.405       .  A
C980        H985   1.082       .  S
C981        C982   1.421       .  A
C982        C983   1.521       .  S
C983        F987   1.385       .  S
C983        F988   1.384       .  S
C983        F989   1.382       .  S
C986        F990   1.384       .  S
C986        F991   1.381       .  S
C986        F992   1.385       .  S
C993        C994   1.401       .  A
C993        C998   1.407       .  A
C993       H1000   1.084       .  S
C994        C995   1.414       .  A
C995        C996   1.406       .  A
C995       C1002   1.518       .  S
C996        C997   1.404       .  A
C996       H1001   1.084       .  S
C997        C998   1.418       .  A
C998        C999   1.519       .  S
C999       F1003   1.385       .  S
C999       F1004   1.383       .  S
C999       F1005   1.381       .  S
C1002      F1006   1.383       .  S
C1002      F1007   1.382       .  S
C1002      F1008   1.385       .  S
