geometry optimzed in LAMMPS
_audit_creation_date              2020-12-01 
_audit_creation_method            'lammps2cif' 
_symmetry_space_group_name_H-M    'P1' 
_symmetry_Int_Tables_number       1 
_symmetry_cell_setting            triclinic 
loop_ 
_symmetry_equiv_pos_as_xyz 
  x,y,z 
_cell_length_a                    39.93837612 
_cell_length_b                    28.965880798955716 
_cell_length_c                    29.198572502405007 
_cell_angle_alpha                 89.65119253511739 
_cell_angle_beta                  122.41141528807084 
_cell_angle_gamma                 89.48420641511036 
loop_ 
_atom_site_label 
_atom_site_type_symbol 
_atom_site_fract_x 
_atom_site_fract_y 
_atom_site_fract_z 
_atom_site_charge 
C1          C  0.63626707  0.17530764  0.47243068     0.86300
C2          C  0.62081332  0.18560709  0.41293617    -0.53900
C3          C  0.58058478  0.18739117  0.37944166     0.09200
C4          C  0.55949781  0.16765681  0.40758897     0.20200
C5          C  0.61154467  0.20991967  0.98800393    -0.54700
C6          C  0.57017008  0.20270505  0.45161823     0.09300
C7          C  0.62050908  0.12665120  0.47186940    -0.54200
C8          C  0.58026528  0.12279349  0.44185769     0.09900
H9          H  0.64004732  0.19897296  0.40038316     0.14400
H10         H  0.52756359  0.16166042  0.37830983     0.00100
H11         H  0.62590583  0.23226879  0.02233884     0.14700
H12         H  0.63805008  0.10396113  0.00442326     0.14500
C13         C  0.94222324  0.20195327  0.17715539     0.86300
C14         C  0.97100666  0.21411285  0.23748523    -0.53900
C15         C  0.00833154  0.22591992  0.25104679     0.09200
C16         C  0.01561398  0.21306840  0.20541745     0.20200
C17         C  0.94818777  0.24089125  0.14616829    -0.54700
C18         C  0.98655408  0.24525640  0.15984478     0.09300
C19         C  0.96181696  0.15864997  0.16866923    -0.54200
C20         C  0.99958070  0.16482964  0.18013849     0.09900
H21         H  0.96176910  0.22047901  0.26539284     0.14400
H22         H  0.04726913  0.21594679  0.21911838     0.00100
H23         H  0.92378696  0.26200949  0.11557970     0.14700
H24         H  0.94544148  0.12780663  0.14856459     0.14500
O25         O  0.54537366  0.97764781  0.99112548    -0.73100
O26         O  0.58762146  0.08208992  0.10288133    -0.74100
O27         O  0.54531881  0.99529320  0.08997685    -0.62700
O28         O  0.58455986  0.06477588  0.00351039    -0.71100
O29         O  0.52745972  0.10270505  0.95577455    -0.70700
O30         O  0.48991681  0.03674910  0.04458955    -0.62000
O31         O  0.53158623  0.12234220  0.05700173    -0.74500
O32         O  0.48625760  0.01259164  0.44678847    -0.73200
Cu33       Cu  0.56764000  0.02875774  0.04848352     1.04600
Cu34       Cu  0.50716723  0.07020369  0.99919394     1.04300
C35         C  0.50791644  0.97693750  0.45282585     0.93100
C36         C  0.56747054  0.11867969  0.09791865     0.92200
C37         C  0.51053916  0.00524322  0.07998375     0.84300
C38         C  0.56278723  0.09538382  0.96708215     0.90600
O39         O  0.99249645  0.13656227  0.51592669    -0.73100
O40         O  0.03371881  0.02389926  0.11799667    -0.74100
O41         O  0.99328930  0.11041403  0.11117572    -0.62700
O42         O  0.03553388  0.04941132  0.02164215    -0.71100
O43         O  0.09252640  0.08476897  0.07218359    -0.70700
O44         O  0.05030831  0.14608902  0.15932417    -0.62000
O45         O  0.09189451  0.05749442  0.16563687    -0.74500
O46         O  0.05127473  0.17017648  0.06179817    -0.73200
Cu47       Cu  0.01215621  0.07851529  0.06461866     1.04600
Cu48       Cu  0.07330226  0.11595352  0.11678768     1.04300
C49         C  0.01436245  0.17072079  0.52105033     0.93100
C50         C  0.06998466  0.02233365  0.15717860     0.92200
C51         C  0.01535812  0.13851137  0.14947572     0.84300
C52         C  0.07131150  0.05633893  0.03423126     0.90600
C53         C  0.43113347  0.46044675  0.10624780     0.86300
C54         C  0.45705888  0.49659086  0.10104491    -0.53900
C55         C  0.49074967  0.47945099  0.10510043     0.09200
C56         C  0.49654352  0.42658827  0.11839518     0.20200
C57         C  0.42451689  0.42282914  0.06511265    -0.54700
C58         C  0.45857987  0.40502989  0.07101374     0.09300
C59         C  0.45868609  0.43505879  0.16064879    -0.54200
C60         C  0.49255337  0.41664448  0.16729381     0.09900
H61         H  0.44951365  0.03298109  0.09120182     0.14400
H62         H  0.52508414  0.41268400  0.12703529     0.00100
H63         H  0.39529545  0.41042300  0.03482085     0.14700
H64         H  0.44853223  0.42311131  0.18635073     0.14500
C65         C  0.14927960  0.49244526  0.52451244     0.86300
C66         C  0.12698316  0.53689291  0.52361998    -0.53900
C67         C  0.08786959  0.53074025  0.50690945     0.09200
C68         C  0.07383905  0.48055640  0.48534027     0.20200
C69         C  0.14206980  0.45427374  0.06119849    -0.54700
C70         C  0.10123783  0.45105647  0.53561992     0.09300
C71         C  0.12540339  0.47441631  0.46627419    -0.54200
C72         C  0.08670562  0.46516132  0.44578678     0.09900
H73         H  0.14449390  0.06617583  0.04921249     0.14400
H74         H  0.04163773  0.47571585  0.46694899     0.00100
H75         H  0.16409361  0.43497281  0.09686100     0.14700
H76         H  0.13998017  0.46172193  0.44634927     0.14500
C77         C  0.14412559  0.42486181  0.23904644     0.86300
C78         C  0.11445603  0.45282911  0.18649221    -0.53900
C79         C  0.08588085  0.47775699  0.18895754     0.09200
C80         C  0.08801307  0.46894903  0.24305205     0.20200
C81         C  0.15926357  0.46121173  0.28340760    -0.54700
C82         C  0.13023893  0.48425548  0.28497864     0.09300
C83         C  0.11701136  0.39361824  0.24823445    -0.54200
C84         C  0.08903560  0.41581337  0.25353490     0.09900
H85         H  0.11827191  0.45713538  0.15264664     0.14400
H86         H  0.06467945  0.48775254  0.24554599     0.00100
H87         H  0.19038817  0.46974994  0.30935970     0.14700
H88         H  0.12083247  0.35731110  0.25440798     0.14500
C89         C  0.43020397  0.39395798  0.35100726     0.86300
C90         C  0.45581257  0.41889868  0.40619981    -0.53900
C91         C  0.49117092  0.43581184  0.41666066     0.09200
C92         C  0.49866966  0.42333361  0.37103774     0.20200
C93         C  0.42702676  0.43085990  0.31130528    -0.54700
C94         C  0.46240309  0.44620417  0.32217088     0.09300
C95         C  0.45726612  0.35602504  0.34988157    -0.54200
C96         C  0.49218522  0.37081756  0.35676062     0.09900
H97         H  0.44450640  0.43047224  0.43062449     0.14400
H98         H  0.52753114  0.43618355  0.37939220     0.00100
H99         H  0.39916439  0.44618860  0.28006991     0.14700
H100        H  0.44698628  0.32158538  0.33611960     0.14500
O101        O  0.58716846  0.28738976  0.25267273    -0.73100
O102        O  0.54539729  0.35245356  0.34015851    -0.74100
O103        O  0.58545436  0.26316891  0.34772727    -0.62700
O104        O  0.54663001  0.37486524  0.24393722    -0.71100
O105        O  0.48888396  0.33995691  0.19533768    -0.70700
O106        O  0.52821134  0.22789867  0.29816673    -0.62000
O107        O  0.48892656  0.31560632  0.29138592    -0.73300
O108        O  0.52964305  0.25345829  0.20164558    -0.73200
Cu109      Cu  0.56816255  0.32052562  0.29792023     1.04600
Cu110      Cu  0.50702682  0.28316522  0.24482226     1.04300
C111        C  0.56545485  0.25933547  0.21417712     0.93100
C112        C  0.51012076  0.34472863  0.32891862     0.92200
C113        C  0.56376783  0.22771939  0.33943975     0.84300
C114        C  0.51067875  0.37501265  0.20352738     0.90600
O115        O  0.03714397  0.39857122  0.27190081    -0.73100
O116        O  0.99995359  0.33341873  0.36167697    -0.74100
O117        O  0.03487205  0.42269926  0.36712206    -0.62700
O118        O  0.00182565  0.30646684  0.27007067    -0.71100
O119        O  0.06075222  0.27323451  0.32244450    -0.70700
O120        O  0.09357934  0.38872913  0.41825922    -0.62000
O121        O  0.05811668  0.29889247  0.41433878    -0.74500
O122        O  0.09536461  0.36361033  0.32338271    -0.73200
Cu123      Cu  0.01653180  0.36646011  0.31578155     1.04600
Cu124      Cu  0.07911222  0.33050382  0.37147958     1.04300
C125        C  0.07277390  0.39170724  0.28407159     0.93100
C126        C  0.02166604  0.30366668  0.39903231     0.92200
C127        C  0.07040151  0.42356590  0.40871140     0.84300
C128        C  0.02469777  0.27059898  0.28269519     0.90600
C129        C  0.64707331  0.19087463  0.21594215     0.86300
C130        C  0.62288559  0.23602112  0.20633074    -0.53900
C131        C  0.58343526  0.23008971  0.18832900     0.09200
C132        C  0.57135217  0.17835664  0.17337051     0.20200
C133        C  0.63695481  0.16331171  0.25253691    -0.54700
C134        C  0.59714312  0.15590103  0.23026358     0.09300
C135        C  0.62664108  0.16431604  0.16280149    -0.54200
C136        C  0.58737655  0.15655371  0.13999191     0.09900
H137        H  0.63798005  0.26779563  0.22542106     0.14400
H138        H  0.53899903  0.17351008  0.15041423     0.00100
H139        H  0.65808538  0.15965512  0.29495924     0.14700
H140        H  0.64323157  0.14894778  0.14684752     0.14500
C141        C  0.94574474  0.21912647  0.38138254     0.86300
C142        C  0.96222162  0.26656463  0.38340429    -0.53900
C143        C  0.00202445  0.27092992  0.41797941     0.09200
C144        C  0.02161695  0.22565567  0.45218186     0.20200
C145        C  0.97249150  0.18684017  0.37071609    -0.54700
C146        C  0.01322500  0.18927659  0.40935669     0.09300
C147        C  0.95828804  0.20616276  0.43900291    -0.54200
C148        C  0.99790233  0.20653251  0.47620176     0.09900
H149        H  0.94456537  0.29142957  0.35098500     0.14400
H150        H  0.05154262  0.23269474  0.48556437     0.00100
H151        H  0.96030905  0.16490908  0.33574071     0.14700
H152        H  0.93772413  0.18924761  0.44705080     0.14500
C153        C  0.83567682  0.24101828  0.33051891    -0.22700
C154        C  0.81718937  0.20405106  0.29611526     0.09300
C155        C  0.83913943  0.17555696  0.28217609     0.09700
C156        C  0.88036672  0.18205806  0.30756877    -0.17600
C157        C  0.89994878  0.21806823  0.34482346    -0.28000
C158        C  0.87599225  0.24967801  0.35337617     0.18000
C159        C  0.77435278  0.19777814  0.27449088     0.12000
C160        C  0.81894996  0.13852400  0.24043868    -0.12300
H161        H  0.89690899  0.15800406  0.29882805     0.12300
C162        C  0.89110442  0.29436109  0.38400503    -0.23200
H163        H  0.81792298  0.26400483  0.33864104     0.07900
C164        C  0.76138610  0.16974912  0.30133903     0.04300
C165        C  0.72074476  0.16841600  0.28228848    -0.20400
C166        C  0.69203160  0.19613938  0.23794552    -0.12700
C167        C  0.70604915  0.22427265  0.21130226     0.13000
C168        C  0.74670456  0.22475405  0.23020665    -0.23100
C169        C  0.79064222  0.14154931  0.35072382    -0.06200
H170        H  0.71213408  0.14405488  0.30198583     0.14500
C171        C  0.67894552  0.25253370  0.16113350    -0.16400
H172        H  0.75723064  0.24646230  0.21024329     0.08800
H173        H  0.86968084  0.31029609  0.39263500     0.06700
H174        H  0.89536721  0.31973741  0.35905667     0.07900
H175        H  0.91921812  0.28945650  0.42326918     0.06900
H176        H  0.79548170  0.15451225  0.20138930     0.01800
H177        H  0.80523180  0.11318145  0.25395969     0.02300
H178        H  0.84008284  0.11974994  0.23329061     0.05800
H179        H  0.77582494  0.12170671  0.36749518     0.04800
H180        H  0.81243014  0.16471338  0.38295061    -0.01000
H181        H  0.80665602  0.11670160  0.34008875     0.00500
H182        H  0.66088828  0.27742904  0.16783644     0.04200
H183        H  0.66034653  0.22877676  0.12803898     0.06100
H184        H  0.69552956  0.27301687  0.14753876     0.07000
C185        C  0.57560014  0.08928945  0.32522171    -0.22700
C186        C  0.53437289  0.09400096  0.29457971     0.09300
C187        C  0.51563435  0.12636128  0.25247270     0.09700
C188        C  0.53846167  0.14936672  0.23752105    -0.17600
C189        C  0.57898711  0.13848002  0.26033875    -0.28000
C190        C  0.59841185  0.10921063  0.30733638     0.18000
C191        C  0.51147449  0.05619982  0.29566404     0.12000
C192        C  0.47113459  0.13404723  0.21994895    -0.12300
H193        H  0.52277846  0.17375495  0.20548922     0.12300
C194        C  0.64164759  0.09531887  0.33751844    -0.23200
H195        H  0.58915129  0.06492786  0.35903797     0.07900
C196        C  0.51452696  0.01256097  0.27696561     0.04300
C197        C  0.49317607  0.47984869  0.28007129    -0.20400
C198        C  0.46756112  0.48672137  0.29806757    -0.12700
C199        C  0.46049530  0.02927888  0.30947624     0.13000
C200        C  0.48383454  0.06472457  0.30996044    -0.23100
C201        C  0.54184860  0.00304344  0.25698847    -0.06200
H202        H  0.49907750  0.44509263  0.27230743     0.14500
C203        C  0.43109444  0.04126280  0.32509393    -0.16400
H204        H  0.48100112  0.09895118  0.32246598     0.08800
H205        H  0.64882224  0.06736823  0.36778675     0.06700
H206        H  0.66025035  0.12486965  0.36109279     0.07900
H207        H  0.64961751  0.08184985  0.30901824     0.06900
H208        H  0.46147739  0.14751780  0.24661683     0.01800
H209        H  0.45582293  0.10117134  0.20152045     0.02300
H210        H  0.46142223  0.15954030  0.18642254     0.05800
H211        H  0.54017721  0.47096788  0.24460239     0.04800
H212        H  0.57324636  0.00736974  0.28996529    -0.01000
H213        H  0.53426505  0.02650631  0.22240686     0.00500
H214        H  0.44608109  0.06005167  0.36398022     0.04200
H215        H  0.41626635  0.01111934  0.32938871     0.06100
H216        H  0.40785559  0.06466493  0.29361725     0.07000
C217        C  0.11146433  0.13766413  0.43321586    -0.22700
C218        C  0.09653267  0.10224623  0.39651019     0.09300
C219        C  0.05655731  0.08970535  0.37183678     0.09700
C220        C  0.03104923  0.11753935  0.37903734    -0.17600
C221        C  0.04438624  0.15759493  0.41095954    -0.28000
C222        C  0.08661241  0.16464600  0.44256475     0.18000
C223        C  0.12080065  0.08442202  0.37680926     0.12000
C224        C  0.03965965  0.04810012  0.33602536    -0.12300
H225        H  0.00047102  0.10723467  0.35896738     0.12300
C226        C  0.10782161  0.19909733  0.48663627    -0.23200
H227        H  0.14278605  0.14526740  0.45308994     0.07900
C228        C  0.11078388  0.09669047  0.32452693     0.04300
C229        C  0.12038463  0.06605208  0.29681780    -0.20400
C230        C  0.13740510  0.52350522  0.31987891    -0.12700
C231        C  0.15986105  0.01950689  0.37832696     0.13000
C232        C  0.14930777  0.04994403  0.40576429    -0.23100
C233        C  0.08757331  0.14009940  0.29721187    -0.06200
H234        H  0.10839578  0.07210451  0.25455143     0.14500
C235        C  0.18705780  0.47927018  0.40569834    -0.16400
H236        H  0.16021680  0.04467160  0.44776600     0.08800
H237        H  0.09815065  0.23403712  0.46912505     0.06700
H238        H  0.14051100  0.19812699  0.50566908     0.07900
H239        H  0.10328749  0.19087656  0.52006818     0.06900
H240        H  0.06253466  0.02715033  0.33478540     0.01800
H241        H  0.01684941  0.05941870  0.29404708     0.02300
H242        H  0.02559586  0.02542988  0.35165057     0.05800
H243        H  0.08586628  0.14625373  0.25866603     0.04800
H244        H  0.10260835  0.17014316  0.32356788    -0.01000
H245        H  0.05716312  0.13766959  0.28909871     0.00500
H246        H  0.19954896  0.48027743  0.44972493     0.04200
H247        H  0.21216205  0.48313764  0.39989563     0.06100
H248        H  0.17299020  0.44523441  0.39041466     0.07000
C249        C  0.24363348  0.35655925  0.29391511    -0.22700
C250        C  0.26126314  0.38261106  0.27222596     0.09300
C251        C  0.23800444  0.41712530  0.23308081     0.09700
C252        C  0.19851519  0.42541710  0.21840096    -0.17600
C253        C  0.18121695  0.40194769  0.24330306    -0.28000
C254        C  0.20582365  0.36771469  0.28382298     0.18000
C255        C  0.30507860  0.37679566  0.29563760     0.12000
C256        C  0.25553344  0.44783032  0.20945004    -0.12300
H257        H  0.18270863  0.45396567  0.19096375     0.12300
C258        C  0.19570479  0.34512814  0.32160152    -0.23200
H259        H  0.26107899  0.32903680  0.32261123     0.07900
C260        C  0.33369776  0.38523107  0.35099449     0.04300
C261        C  0.37431156  0.38514648  0.36947108    -0.20400
C262        C  0.38780580  0.37880826  0.33403039    -0.12700
C263        C  0.35920235  0.36411500  0.28015712     0.13000
C264        C  0.31853683  0.36384029  0.26196610    -0.23100
C265        C  0.32183900  0.39651307  0.39083933    -0.06200
H266        H  0.39504512  0.39118148  0.41189239     0.14500
C267        C  0.37046795  0.34856363  0.24072305    -0.16400
H268        H  0.29683595  0.35424742  0.22060366     0.08800
H269        H  0.22206520  0.32810197  0.35691922     0.06700
H270        H  0.17405228  0.31731553  0.30056932     0.07900
H271        H  0.18513803  0.37112787  0.33895962     0.06900
H272        H  0.26428317  0.42714220  0.18559353     0.01800
H273        H  0.28036811  0.95851598  0.23289014     0.02300
H274        H  0.23173519  0.96623237  0.17326468     0.05800
H275        H  0.34711115  0.91042018  0.42792497     0.04800
H276        H  0.30817398  0.36620962  0.39752667    -0.01000
H277        H  0.30020446  0.92966055  0.37090129     0.00500
H278        H  0.38947493  0.31713761  0.25656608     0.04200
H279        H  0.38582237  0.37578844  0.23243206     0.06100
H280        H  0.34397263  0.33932907  0.20088813     0.07000
C281        C  0.25767923  0.45413615  0.06566058    -0.22700
C282        C  0.27533652  0.49701822  0.07269066     0.09300
C283        C  0.25504872  0.53702476  0.07253115     0.09700
C284        C  0.21272990  0.53688061  0.55118999    -0.17600
C285        C  0.19719109  0.49060987  0.05250496    -0.28000
C286        C  0.21929354  0.44994155  0.05576967     0.18000
C287        C  0.31609203  0.49809787  0.08291472     0.12000
C288        C  0.26738364  0.08975779  0.56520742    -0.12300
H289        H  0.19729162  0.56883838  0.54751605     0.12300
C290        C  0.20367062  0.40133457  0.04874116    -0.23200
H291        H  0.27425313  0.42350504  0.06767430     0.07900
C292        C  0.34968368  0.49173426  0.13542362     0.04300
C293        C  0.38680512  0.48280476  0.14240117    -0.20400
C294        C  0.39178878  0.47989336  0.09795827    -0.12700
C295        C  0.35851439  0.49328018  0.04597489     0.13000
C296        C  0.32106451  0.50042526  0.03903683    -0.23100
C297        C  0.34795281  0.00196979  0.18305189    -0.06200
H298        H  0.41181888  0.47827035  0.18356619     0.14500
C299        C  0.36048716  0.50046541  0.99634039    -0.16400
H300        H  0.29528784  0.50700096  0.99872102     0.08800
H301        H  0.22346481  0.37573635  0.04618114     0.06700
H302        H  0.17420630  0.39779461  0.01109078     0.07900
H303        H  0.20257391  0.39073566  0.08437461     0.06900
H304        H  0.27422304  0.59146229  0.53092088     0.01800
H305        H  0.29892005  0.09375562  0.11109902     0.02300
H306        H  0.24707555  0.11806683  0.56147539     0.05800
H307        H  0.37762692  0.00126424  0.22085539     0.04800
H308        H  0.34766300  0.45533108  0.19757246    -0.01000
H309        H  0.33375471  0.03540561  0.18186507     0.00500
H310        H  0.33937929  0.47710547  0.96402520     0.04200
H311        H  0.39026341  0.49483663  0.00331100     0.06100
H312        H  0.35139838  0.53654875  0.98141543     0.07000
C313        C  0.03221300  0.36565354  0.04112358    -0.22700
C314        C  0.05331348  0.32401373  0.05343233     0.09300
C315        C  0.08983739  0.32201137  0.05681771     0.09700
C316        C  0.10547686  0.36297841  0.05145565    -0.17600
C317        C  0.08652278  0.40543181  0.04645967    -0.28000
C318        C  0.04961274  0.40645104  0.04171446     0.18000
C319        C  0.04102791  0.29035771  0.07849244     0.12000
C320        C  0.11339133  0.27821863  0.06756960    -0.12300
H321        H  0.13405529  0.36649690  0.55618844     0.12300
C322        C  0.03049288  0.44956723  0.04536818    -0.23200
H323        H  0.00442482  0.36738615  0.03955970     0.07900
C324        C  0.06132734  0.28995337  0.13544408     0.04300
C325        C  0.03962624  0.28453825  0.15944912    -0.20400
C326        C  0.00022981  0.26980721  0.12923978    -0.12700
C327        C  0.98059846  0.26608209  0.07248938     0.13000
C328        C  0.00091336  0.27858074  0.04792184    -0.23100
C329        C  0.10547621  0.29629457  0.17127085    -0.06200
H330        H  0.05455766  0.28833011  0.20306046     0.14500
C331        C  0.93858462  0.24973699  0.03736936    -0.16400
H332        H  0.98462472  0.28363947  0.00448765     0.08800
H333        H  0.05280752  0.47669780  0.06341934     0.06700
H334        H  0.02012701  0.44746444  0.57505395     0.07900
H335        H  0.00477672  0.45991401  0.00486175     0.06900
H336        H  0.09794860  0.24763568  0.07012851     0.01800
H337        H  0.14274050  0.28115261  0.10594818     0.02300
H338        H  0.11892367  0.27339022  0.03471897     0.05800
H339        H  0.11594906  0.29196894  0.21462657     0.04800
H340        H  0.11407611  0.33083463  0.16460761    -0.01000
H341        H  0.12098184  0.26866385  0.16343737     0.00500
H342        H  0.91783621  0.27500518  0.03797038     0.04200
H343        H  0.93553192  0.21487327  0.05059987     0.06100
H344        H  0.92949721  0.24687001  0.99473718     0.07000
C345        C  0.47678512  0.32868552  0.98118789    -0.22700
C346        C  0.45589212  0.28916600  0.97780435     0.09300
C347        C  0.43279053  0.28896454  0.00098010     0.09700
C348        C  0.43247070  0.32830532  0.02869517    -0.17600
C349        C  0.45803210  0.36546806  0.03841277    -0.28000
C350        C  0.48197286  0.36389371  0.01628795     0.18000
C351        C  0.47313134  0.24712480  0.97022915     0.12000
C352        C  0.40969379  0.24740771  0.99865376    -0.12300
H353        H  0.41441869  0.32839846  0.04615781     0.12300
C354        C  0.51518568  0.39638913  0.03145615    -0.23200
H355        H  0.49535294  0.32778728  0.96439776     0.07900
C356        C  0.46668585  0.23993257  0.41469842     0.04300
C357        C  0.49916926  0.22787117  0.41071101    -0.20400
C358        C  0.53818767  0.22438371  0.96059440    -0.12700
C359        C  0.54324306  0.23100239  0.01184675     0.13000
C360        C  0.51024514  0.23645635  0.01615575    -0.23100
C361        C  0.42552411  0.24431679  0.36494454    -0.06200
H362        H  0.49416336  0.22397663  0.37063190     0.14500
C363        C  0.58287607  0.23733894  0.06178699    -0.16400
H364        H  0.51486363  0.24317789  0.05569490     0.08800
H365        H  0.50367926  0.43197763  0.02543620     0.06700
H366        H  0.52830450  0.39131128  0.00663909     0.07900
H367        H  0.54023775  0.38937611  0.07333790     0.06900
H368        H  0.41232352  0.21885566  0.97554092     0.01800
H369        H  0.37782290  0.25704679  0.97845564     0.02300
H370        H  0.42074742  0.23477414  0.04046546     0.05800
H371        H  0.42539636  0.23878216  0.32723582     0.04800
H372        H  0.41251913  0.27887355  0.36274587    -0.01000
H373        H  0.40636109  0.21799110  0.36705646     0.00500
H374        H  0.59701769  0.26807008  0.05670470     0.04200
H375        H  0.60031052  0.20526554  0.06942408     0.06100
H376        H  0.58097371  0.24466162  0.09732167     0.07000
C377        C  0.83422537  0.21916359  0.14689279    -0.22700
C378        C  0.81216239  0.19321382  0.09975570     0.09300
C379        C  0.83204135  0.17305743  0.07676970     0.09700
C380        C  0.87366231  0.17489250  0.10455590    -0.17600
C381        C  0.89701403  0.19798534  0.15444753    -0.28000
C382        C  0.87569676  0.22423461  0.17260835     0.18000
C383        C  0.76806544  0.18982981  0.07303361     0.12000
C384        C  0.80920444  0.15203374  0.02110222    -0.12300
H385        H  0.88775568  0.16007707  0.08499839     0.12300
C386        C  0.89415301  0.26170317  0.21431258    -0.23200
H387        H  0.81856556  0.23715965  0.16259487     0.07900
C388        C  0.74961111  0.14752962  0.06902510     0.04300
C389        C  0.70808006  0.14490278  0.03759916    -0.20400
C390        C  0.68286965  0.18395744  0.01170567    -0.12700
C391        C  0.70017473  0.22587489  0.51321792     0.13000
C392        C  0.74401989  0.22921581  0.04874342    -0.23100
C393        C  0.77282562  0.10398910  0.09751226    -0.06200
H394        H  0.69661596  0.11071373  0.03309970     0.14500
C395        C  0.67666483  0.27012557  0.48815473    -0.16400
H396        H  0.75560236  0.26120159  0.54240795     0.08800
H397        H  0.90769719  0.24683869  0.25564346     0.06700
H398        H  0.87144668  0.28730648  0.20916359     0.07900
H399        H  0.91589078  0.28142699  0.20972302     0.06900
H400        H  0.78773744  0.17327951  0.48867971     0.01800
H401        H  0.79213426  0.12198345  0.02069831     0.02300
H402        H  0.82949467  0.13548569  0.50905325     0.05800
H403        H  0.76341590  0.09090662  0.12468742     0.04800
H404        H  0.80527733  0.10929275  0.12274295    -0.01000
H405        H  0.76674571  0.07712720  0.06711488     0.00500
H406        H  0.69622578  0.29927449  0.49327317     0.04200
H407        H  0.66102773  0.28061095  0.50833729     0.06100
H408        H  0.65525024  0.26691490  0.44412212     0.07000
C409        C  0.63681687  0.17824228  0.97433574     0.86300
C410        C  0.62132470  0.18929003  0.91501291    -0.53900
C411        C  0.58109386  0.19045914  0.88133595     0.09200
C412        C  0.55995189  0.17075550  0.90934519     0.20200
C413        C  0.61098241  0.20722028  0.48566280    -0.54700
C414        C  0.57062138  0.20548127  0.95392358     0.09300
C415        C  0.62085217  0.12974612  0.97343039    -0.54200
C416        C  0.58066430  0.12577319  0.94298914     0.09900
H417        H  0.64054632  0.20305107  0.90259719     0.14400
H418        H  0.52807629  0.16466372  0.87993198     0.00100
H419        H  0.62529594  0.23012655  0.51953908     0.14700
H420        H  0.63791780  0.10000124  0.50119199     0.14500
C421        C  0.94075493  0.20465468  0.67548420     0.86300
C422        C  0.96943642  0.21831289  0.73544460    -0.53900
C423        C  0.00670871  0.23001097  0.74875775     0.09200
C424        C  0.01408676  0.21653697  0.70350832     0.20200
C425        C  0.94619717  0.24281589  0.64316818    -0.54700
C426        C  0.98450884  0.24769849  0.65691479     0.09300
C427        C  0.96101695  0.16124729  0.66853832    -0.54200
C428        C  0.99871095  0.16787036  0.67991717     0.09900
H429        H  0.96074205  0.22475860  0.76368774     0.14400
H430        H  0.04575363  0.21953733  0.71714444     0.00100
H431        H  0.92152206  0.26314063  0.61173769     0.14700
H432        H  0.94515438  0.12984751  0.64956342     0.14500
O433        O  0.54407818  0.97618754  0.49264339    -0.73100
O434        O  0.58673997  0.08223404  0.60295150    -0.74100
O435        O  0.54299264  0.99656747  0.59046792    -0.62700
O436        O  0.58413145  0.06294556  0.50395869    -0.71100
O437        O  0.52705891  0.10069347  0.45515421    -0.70700
O438        O  0.48757726  0.03777575  0.54354957    -0.62000
O439        O  0.53078275  0.12243133  0.55611390    -0.74500
O440        O  0.48757256  0.01434896  0.94655950    -0.73200
Cu441      Cu  0.56637147  0.02827966  0.54915319     1.04600
Cu442      Cu  0.50599676  0.06961166  0.49857402     1.04300
C443        C  0.50915453  0.97899550  0.95156427     0.93100
C444        C  0.56662051  0.11898116  0.59740591     0.92200
C445        C  0.50793742  0.00660757  0.57951589     0.84300
C446        C  0.56243526  0.09309196  0.46675098     0.90600
O447        O  0.99405266  0.13425600  0.01443751    -0.73100
O448        O  0.03384570  0.02610053  0.61925926    -0.74100
O449        O  0.99321898  0.11235469  0.61297875    -0.62700
O450        O  0.03316622  0.05243575  0.52099138    -0.71100
O451        O  0.09070586  0.08668920  0.57128471    -0.70700
O452        O  0.05024592  0.14825249  0.66099423    -0.62000
O453        O  0.09199278  0.05987480  0.66697690    -0.74500
O454        O  0.04994222  0.17218144  0.56239761    -0.73200
Cu455      Cu  0.01128215  0.08082849  0.56581636     1.04600
Cu456      Cu  0.07260286  0.11807285  0.61751048     1.04300
C457        C  0.01588521  0.16863896  0.02005202     0.93100
C458        C  0.07023074  0.02446938  0.65816403     0.92200
C459        C  0.01515349  0.14080934  0.65078806     0.84300
C460        C  0.06866636  0.05913128  0.53255465     0.90600
C461        C  0.42854084  0.45962338  0.60146150     0.86300
C462        C  0.45579655  0.49604905  0.59989881    -0.53900
C463        C  0.49000711  0.47905496  0.60542648     0.09200
C464        C  0.49504167  0.42594968  0.61695270     0.20200
C465        C  0.42304629  0.42320809  0.55968505    -0.54700
C466        C  0.45773363  0.40526110  0.56757847     0.09300
C467        C  0.45439221  0.43278373  0.65526552    -0.54200
C468        C  0.48881798  0.41478445  0.66360649     0.09900
H469        H  0.44474527  0.03287452  0.58781313     0.14400
H470        H  0.52395190  0.41209723  0.62703400     0.00100
H471        H  0.39410279  0.41131795  0.52794585     0.14700
H472        H  0.44330241  0.42037893  0.67970738     0.14500
C473        C  0.15216343  0.48894461  0.03048164     0.86300
C474        C  0.12973093  0.53327750  0.02963328    -0.53900
C475        C  0.09008994  0.52754879  0.01020632     0.09200
C476        C  0.07607095  0.47792902  0.98770048     0.20200
C477        C  0.14065251  0.45870932  0.55763710    -0.54700
C478        C  0.10235876  0.44720476  0.03730390     0.09300
C479        C  0.12921751  0.47221598  0.97165796    -0.54200
C480        C  0.09013973  0.46364180  0.94954387     0.09900
H481        H  0.14055900  0.06917239  0.54444601     0.14400
H482        H  0.04368965  0.47337907  0.96787317     0.00100
H483        H  0.16339260  0.44073155  0.59384927     0.14700
H484        H  0.14441342  0.46012654  0.95230219     0.14500
C485        C  0.14718193  0.42785341  0.74487456     0.86300
C486        C  0.11808424  0.45653966  0.69271098    -0.53900
C487        C  0.08949209  0.48132732  0.69498186     0.09200
C488        C  0.09093988  0.47190229  0.74851386     0.20200
C489        C  0.16237587  0.46348818  0.79018752    -0.54700
C490        C  0.13325552  0.48651894  0.79174016     0.09300
C491        C  0.11951772  0.39663753  0.75275456    -0.54200
C492        C  0.09130907  0.41868769  0.75759262     0.09900
H493        H  0.12154349  0.46081993  0.65856726     0.14400
H494        H  0.06736852  0.49052362  0.75062362     0.00100
H495        H  0.19358381  0.47139293  0.81684644     0.14700
H496        H  0.12344424  0.36027635  0.75889115     0.14500
C497        C  0.42993713  0.39304584  0.84955936     0.86300
C498        C  0.45489682  0.42013273  0.90333089    -0.53900
C499        C  0.48995014  0.43716883  0.91312092     0.09200
C500        C  0.49776054  0.42314568  0.86822432     0.20200
C501        C  0.42599352  0.42819961  0.80760705    -0.54700
C502        C  0.46115119  0.44391575  0.81788245     0.09300
C503        C  0.45774908  0.35497689  0.85090722    -0.54200
C504        C  0.49225367  0.37021232  0.85680262     0.09900
H505        H  0.44361674  0.43233015  0.92752410     0.14400
H506        H  0.52639953  0.43624950  0.87601689     0.00100
H507        H  0.39786682  0.44202592  0.77502435     0.14700
H508        H  0.44813186  0.32001066  0.83922921     0.14500
O509        O  0.58429916  0.28804275  0.74962197    -0.73100
O510        O  0.54413769  0.35294653  0.83801313    -0.74100
O511        O  0.58486184  0.26501485  0.84660898    -0.62700
O512        O  0.54340452  0.37430309  0.74029043    -0.71100
O513        O  0.48566287  0.33898217  0.69396800    -0.70700
O514        O  0.52805526  0.22851323  0.79870967    -0.62000
O515        O  0.48809572  0.31476407  0.79155434    -0.73300
O516        O  0.52682132  0.25378641  0.69960516    -0.73200
Cu517      Cu  0.56613990  0.32116264  0.79532659     1.04600
Cu518      Cu  0.50524704  0.28282991  0.74417118     1.04300
C519        C  0.56232956  0.26010855  0.71120037     0.93100
C520        C  0.50944253  0.34431386  0.82831842     0.92200
C521        C  0.56367681  0.22946086  0.83978301     0.84300
C522        C  0.50722819  0.37391205  0.70069023     0.90600
O523        O  0.03898357  0.40198734  0.77529019    -0.73100
O524        O  0.99982549  0.33372587  0.86144890    -0.74100
O525        O  0.03721507  0.42278069  0.87120026    -0.62700
O526        O  0.00136699  0.31049162  0.76893212    -0.71100
O527        O  0.05958778  0.27584545  0.82114567    -0.70700
O528        O  0.09619890  0.38875947  0.91949592    -0.62000
O529        O  0.05874162  0.30206013  0.91626117    -0.74500
O530        O  0.09618480  0.36440306  0.82443934    -0.73200
Cu531      Cu  0.01742689  0.36859329  0.81738919     1.04600
Cu532      Cu  0.07969737  0.33193674  0.87207881     1.04300
C533        C  0.07433738  0.39405624  0.78678532     0.93100
C534        C  0.02190357  0.30459128  0.89941634     0.92200
C535        C  0.07328758  0.42330566  0.91144835     0.84300
C536        C  0.02363851  0.27420481  0.78100988     0.90600
C537        C  0.64480560  0.19459457  0.71456435     0.86300
C538        C  0.61916273  0.23876343  0.70235320    -0.53900
C539        C  0.58001347  0.23146147  0.68470523     0.09200
C540        C  0.56944622  0.17916885  0.67171478     0.20200
C541        C  0.63511531  0.16761822  0.75193536    -0.54700
C542        C  0.59562277  0.15839758  0.72940806     0.09300
C543        C  0.62553385  0.16606138  0.66264165    -0.54200
C544        C  0.58629808  0.15710751  0.63949259     0.09900
H545        H  0.63325506  0.27138695  0.71998673     0.14400
H546        H  0.53724419  0.17297050  0.64896605     0.00100
H547        H  0.65585362  0.16567665  0.79504374     0.14700
H548        H  0.64279650  0.15081885  0.64763090     0.14500
C549        C  0.94452518  0.22062210  0.88281209     0.86300
C550        C  0.96232330  0.26740078  0.88483485    -0.53900
C551        C  0.00255208  0.27006677  0.91737903     0.09200
C552        C  0.02152804  0.22320429  0.94897119     0.20200
C553        C  0.96819989  0.18701459  0.86803687    -0.54700
C554        C  0.00896317  0.18802029  0.90387358     0.09300
C555        C  0.95919319  0.20662049  0.94096293    -0.54200
C556        C  0.99926701  0.20507185  0.97578019     0.09900
H557        H  0.94407025  0.29457126  0.85592843     0.14400
H558        H  0.05353472  0.22500490  0.97928126     0.00100
H559        H  0.95475356  0.16384154  0.83408669     0.14700
H560        H  0.93932131  0.19013109  0.95061254     0.14500
C561        C  0.83501388  0.25030047  0.83290224    -0.22700
C562        C  0.81476707  0.21497576  0.79668217     0.09300
C563        C  0.83556105  0.18468400  0.78268384     0.09700
C564        C  0.87705914  0.18815396  0.80889471    -0.17600
C565        C  0.89862355  0.22174921  0.84883889    -0.28000
C566        C  0.87623970  0.25426842  0.85943954     0.18000
C567        C  0.77208310  0.20950786  0.77640413     0.12000
C568        C  0.81379991  0.14861606  0.74015628    -0.12300
H569        H  0.89215712  0.16329027  0.79864457     0.12300
C570        C  0.89330320  0.29408931  0.89831153    -0.23200
H571        H  0.81845112  0.27420770  0.84219171     0.07900
C572        C  0.75976635  0.18167742  0.80418731     0.04300
C573        C  0.71912795  0.17805690  0.78426745    -0.20400
C574        C  0.68960344  0.20257263  0.73736740    -0.12700
C575        C  0.70300781  0.23090343  0.71007290     0.13000
C576        C  0.74380002  0.23425942  0.73041944    -0.23100
C577        C  0.78970854  0.15545275  0.85498774    -0.06200
H578        H  0.71124718  0.15402725  0.80512869     0.14500
C579        C  0.67523245  0.25576560  0.65744504    -0.16400
H580        H  0.75384083  0.25566914  0.70962500     0.08800
H581        H  0.88147139  0.29401283  0.92513191     0.06700
H582        H  0.88399529  0.32707723  0.87488820     0.07900
H583        H  0.92570276  0.29367415  0.92521735     0.06900
H584        H  0.79157448  0.16577607  0.70116449     0.01800
H585        H  0.79835735  0.12491624  0.75267253     0.02300
H586        H  0.83422006  0.12774582  0.73343298     0.05800
H587        H  0.77535966  0.13537997  0.87226771     0.04800
H588        H  0.81046176  0.17997274  0.88629140    -0.01000
H589        H  0.80682441  0.13098174  0.84580428     0.00500
H590        H  0.65503574  0.27974637  0.66093977     0.04200
H591        H  0.65888798  0.22969156  0.62617173     0.06100
H592        H  0.69127653  0.27678825  0.64341632     0.07000
C593        C  0.57529875  0.09243913  0.82572054    -0.22700
C594        C  0.53408363  0.09769024  0.79609305     0.09300
C595        C  0.51510848  0.13009598  0.75407170     0.09700
C596        C  0.53738838  0.15193647  0.73749298    -0.17600
C597        C  0.57781382  0.14111501  0.75983705    -0.28000
C598        C  0.59762144  0.11193621  0.80679566     0.18000
C599        C  0.51116507  0.05954606  0.79632994     0.12000
C600        C  0.47075614  0.13890130  0.72316696    -0.12300
H601        H  0.52121061  0.17521771  0.70431023     0.12300
C602        C  0.64051875  0.09689327  0.83487807    -0.23200
H603        H  0.58905417  0.06771935  0.85919997     0.07900
C604        C  0.51337958  0.01671730  0.77527058     0.04300
C605        C  0.49149145  0.47638085  0.77426591    -0.20400
C606        C  0.46554941  0.48356047  0.79177180    -0.12700
C607        C  0.45958339  0.03186200  0.80840784     0.13000
C608        C  0.48360150  0.06736405  0.81090521    -0.23100
C609        C  0.54006075  0.00829367  0.75401451    -0.06200
H610        H  0.49759381  0.44155745  0.76712604     0.14500
C611        C  0.42947919  0.04345002  0.82287016    -0.16400
H612        H  0.48103538  0.10115266  0.82457557     0.08800
H613        H  0.64759146  0.06786202  0.86386870     0.06700
H614        H  0.66004635  0.12550787  0.85945416     0.07900
H615        H  0.64741097  0.08449207  0.80489477     0.06900
H616        H  0.46227679  0.15267191  0.75099727     0.01800
H617        H  0.45461047  0.10646012  0.70473387     0.02300
H618        H  0.46082244  0.16463495  0.68980778     0.05800
H619        H  0.53938720  0.46769777  0.73973945     0.04800
H620        H  0.57164691  0.01137312  0.78689704    -0.01000
H621        H  0.53263887  0.03323272  0.72072852     0.00500
H622        H  0.44419080  0.06019082  0.86300117     0.04200
H623        H  0.41310990  0.01348866  0.82397560     0.06100
H624        H  0.40744124  0.06848535  0.79242780     0.07000
C625        C  0.10542351  0.12985969  0.93546860    -0.22700
C626        C  0.09098395  0.09040319  0.90501180     0.09300
C627        C  0.05081377  0.07831173  0.88190547     0.09700
C628        C  0.02530508  0.10895954  0.88601146    -0.17600
C629        C  0.03793897  0.15356334  0.90600588    -0.28000
C630        C  0.07869173  0.16407496  0.92931448     0.18000
C631        C  0.11236023  0.07557399  0.87973508     0.12000
C632        C  0.03331631  0.03600746  0.84786724    -0.12300
H633        H  0.99480175  0.09920530  0.86930295     0.12300
C634        C  0.09159736  0.21190527  0.92839755    -0.23200
H635        H  0.13608963  0.13884967  0.95163508     0.07900
C636        C  0.09764606  0.08792732  0.82552318     0.04300
C637        C  0.11055837  0.06287566  0.79755592    -0.20400
C638        C  0.13997354  0.52527644  0.82743561    -0.12700
C639        C  0.15891171  0.02161074  0.87987900     0.13000
C640        C  0.14665277  0.04826355  0.90825431    -0.23100
C641        C  0.06655143  0.12488376  0.79515200    -0.06200
H642        H  0.09605274  0.06868615  0.75450660     0.14500
C643        C  0.19330392  0.48392818  0.91366948    -0.16400
H644        H  0.16148672  0.04502559  0.95163694     0.08800
H645        H  0.06620732  0.22960087  0.89368114     0.06700
H646        H  0.11577276  0.21293374  0.92024546     0.07900
H647        H  0.10259695  0.22881300  0.96740686     0.06900
H648        H  0.05602556  0.01428970  0.84709591     0.01800
H649        H  0.01058589  0.04653355  0.80551968     0.02300
H650        H  0.01893161  0.01496144  0.86432087     0.05800
H651        H  0.07726619  0.14947997  0.77666781     0.04800
H652        H  0.05968646  0.14525843  0.82113169    -0.01000
H653        H  0.03893545  0.10845119  0.76303721     0.00500
H654        H  0.20613130  0.48477248  0.95790092     0.04200
H655        H  0.21766507  0.49108871  0.90706850     0.06100
H656        H  0.18160500  0.44885799  0.89910810     0.07000
C657        C  0.24593507  0.35838250  0.79973866    -0.22700
C658        C  0.26235241  0.38153618  0.77442359     0.09300
C659        C  0.23815734  0.41349534  0.73231878     0.09700
C660        C  0.19954420  0.42383641  0.71994938    -0.17600
C661        C  0.18376339  0.40391970  0.74878347    -0.28000
C662        C  0.20854231  0.37055534  0.79033591     0.18000
C663        C  0.30596132  0.37565549  0.79705511     0.12000
C664        C  0.25359184  0.43902060  0.70221692    -0.12300
H665        H  0.18333538  0.45084243  0.69037383     0.12300
C666        C  0.19840605  0.34884055  0.82852912    -0.23200
H667        H  0.26383560  0.33204634  0.82994975     0.07900
C668        C  0.33486736  0.38641493  0.85158484     0.04300
C669        C  0.37526808  0.38469857  0.86966119    -0.20400
C670        C  0.38816970  0.37716476  0.83387636    -0.12700
C671        C  0.35946330  0.36082394  0.78091371     0.13000
C672        C  0.31901734  0.36006651  0.76374644    -0.23100
C673        C  0.32376282  0.40277512  0.89074337    -0.06200
H674        H  0.39628396  0.39116026  0.91185472     0.14500
C675        C  0.37037038  0.34419437  0.74145992    -0.16400
H676        H  0.29720152  0.34843722  0.72335041     0.08800
H677        H  0.22469726  0.33186392  0.86398619     0.06700
H678        H  0.17661055  0.32105219  0.80779921     0.07900
H679        H  0.18783078  0.37523599  0.84544584     0.06900
H680        H  0.25990775  0.41447548  0.67870657     0.01800
H681        H  0.28224438  0.96198300  0.73511712     0.02300
H682        H  0.23340019  0.96949236  0.67561059     0.05800
H683        H  0.34991346  0.91430365  0.93055842     0.04800
H684        H  0.30897051  0.37519077  0.89960399    -0.01000
H685        H  0.30343240  0.93522864  0.87381227     0.00500
H686        H  0.39064588  0.31388625  0.75867573     0.04200
H687        H  0.38423554  0.37152717  0.73073843     0.06100
H688        H  0.34385653  0.33295563  0.70271609     0.07000
C689        C  0.25374378  0.45656866  0.55674068    -0.22700
C690        C  0.27101546  0.49921087  0.56083398     0.09300
C691        C  0.25060044  0.53982179  0.55873165     0.09700
C692        C  0.21662776  0.53345465  0.06293426    -0.17600
C693        C  0.19390734  0.49405332  0.54443613    -0.28000
C694        C  0.21588919  0.45296211  0.54865533     0.18000
C695        C  0.31231533  0.49920332  0.57301057     0.12000
C696        C  0.27118784  0.08970853  0.07083625    -0.12300
H697        H  0.20142406  0.56516428  0.06075202     0.12300
C698        C  0.20065430  0.40445495  0.54436812    -0.23200
H699        H  0.27041396  0.42551611  0.56013679     0.07900
C700        C  0.34462000  0.48943263  0.62578389     0.04300
C701        C  0.38216465  0.48045644  0.63445224    -0.20400
C702        C  0.38878815  0.47932097  0.59142907    -0.12700
C703        C  0.35699750  0.49522453  0.53945415     0.13000
C704        C  0.31909730  0.50364303  0.53079295    -0.23100
C705        C  0.34053179  0.98941678  0.67649881    -0.06200
H706        H  0.40613527  0.47441786  0.67589252     0.14500
C707        C  0.36120160  0.50388467  0.49178145    -0.16400
H708        H  0.29440530  0.51261945  0.49042817     0.08800
H709        H  0.21997171  0.37833339  0.54150307     0.06700
H710        H  0.17070490  0.40022547  0.50782743     0.07900
H711        H  0.20086748  0.39511146  0.58130324     0.06900
H712        H  0.28040602  0.59080183  0.04990511     0.01800
H713        H  0.29556497  0.09254236  0.60525109     0.02300
H714        H  0.25006632  0.11752310  0.06565425     0.05800
H715        H  0.36318639  0.01135808  0.70942009     0.04800
H716        H  0.34508908  0.45036865  0.68863513    -0.01000
H717        H  0.31112134  0.00147599  0.66736325     0.00500
H718        H  0.34047502  0.48162636  0.45761958     0.04200
H719        H  0.39144267  0.49769886  0.50061868     0.06100
H720        H  0.35338434  0.54050880  0.47845273     0.07000
C721        C  0.03239437  0.36954653  0.54224115    -0.22700
C722        C  0.05367988  0.32802434  0.55482120     0.09300
C723        C  0.09093756  0.32658367  0.56018744     0.09700
C724        C  0.10637434  0.36759903  0.55464525    -0.17600
C725        C  0.08659630  0.40976100  0.54773948    -0.28000
C726        C  0.04971089  0.41046557  0.54302179     0.18000
C727        C  0.04061777  0.29405861  0.57857657     0.12000
C728        C  0.11558249  0.28345672  0.57310859    -0.12300
H729        H  0.13289708  0.36171175  0.05215129     0.12300
C730        C  0.03076441  0.45339294  0.54730818    -0.23200
H731        H  0.00441744  0.37107450  0.54013414     0.07900
C732        C  0.05975675  0.29406521  0.63539962     0.04300
C733        C  0.03705751  0.28876875  0.65783237    -0.20400
C734        C  0.99814036  0.27289770  0.62670297    -0.12700
C735        C  0.97948142  0.26883456  0.57011410     0.13000
C736        C  0.00052571  0.28185705  0.54665396    -0.23100
C737        C  0.10367135  0.30110433  0.67288451    -0.06200
H738        H  0.05101395  0.29311298  0.70122186     0.14500
C739        C  0.93771926  0.25183040  0.53431500    -0.16400
H740        H  0.98478390  0.28678741  0.50312454     0.08800
H741        H  0.05346156  0.48007735  0.56613626     0.06700
H742        H  0.01999268  0.44402157  0.07332384     0.07900
H743        H  0.00516232  0.46428537  0.50696578     0.06900
H744        H  0.10034778  0.25258257  0.57550117     0.01800
H745        H  0.14428789  0.28738598  0.61223077     0.02300
H746        H  0.12251240  0.27864886  0.54156560     0.05800
H747        H  0.11305054  0.29664830  0.71581856     0.04800
H748        H  0.11224913  0.33585379  0.66671943    -0.01000
H749        H  0.12012592  0.27376301  0.66642965     0.00500
H750        H  0.91649646  0.27674867  0.53429984     0.04200
H751        H  0.93486444  0.21695839  0.54772471     0.06100
H752        H  0.92903787  0.24866885  0.49189780     0.07000
C753        C  0.47894741  0.32899662  0.48062260    -0.22700
C754        C  0.45648213  0.29015142  0.47429763     0.09300
C755        C  0.43242603  0.28987386  0.49597339     0.09700
C756        C  0.43194215  0.32881011  0.52411032    -0.17600
C757        C  0.45823065  0.36559174  0.53579440    -0.28000
C758        C  0.48386858  0.36350917  0.51637872     0.18000
C759        C  0.47294624  0.24783856  0.46600589     0.12000
C760        C  0.40870047  0.24839661  0.49198720    -0.12300
H761        H  0.41300283  0.32892039  0.54016766     0.12300
C762        C  0.51852315  0.39456868  0.53523553    -0.23200
H763        H  0.49856334  0.32791707  0.46549466     0.07900
C764        C  0.46664281  0.23899994  0.91881903     0.04300
C765        C  0.49914718  0.22839661  0.91428206    -0.20400
C766        C  0.53783196  0.22259977  0.45749263    -0.12700
C767        C  0.54253584  0.22890773  0.50849428     0.13000
C768        C  0.50942504  0.23562106  0.51214392    -0.23100
C769        C  0.42526996  0.24245665  0.86933215    -0.06200
H770        H  0.49378246  0.22484955  0.87399107     0.14500
C771        C  0.58206902  0.23409322  0.55885893    -0.16400
H772        H  0.51379646  0.24218636  0.55157034     0.08800
H773        H  0.50818420  0.43053680  0.53072525     0.06700
H774        H  0.53270383  0.39000515  0.51166279     0.07900
H775        H  0.54227529  0.38566612  0.57739270     0.06900
H776        H  0.41087485  0.22052892  0.46773369     0.01800
H777        H  0.37697246  0.25852377  0.47218705     0.02300
H778        H  0.41963444  0.23456850  0.53330953     0.05800
H779        H  0.42487145  0.23622347  0.83154456     0.04800
H780        H  0.41208716  0.27706964  0.86637091    -0.01000
H781        H  0.40650013  0.21616210  0.87242789     0.00500
H782        H  0.59666568  0.26473324  0.55455622     0.04200
H783        H  0.59928111  0.20178269  0.56633555     0.06100
H784        H  0.57987538  0.24133655  0.59413273     0.07000
C785        C  0.83191768  0.22144404  0.64237373    -0.22700
C786        C  0.81063328  0.19489139  0.59574556     0.09300
C787        C  0.83120933  0.17340636  0.57459566     0.09700
C788        C  0.87279505  0.17618834  0.60282240    -0.17600
C789        C  0.89551436  0.19997303  0.65245005    -0.28000
C790        C  0.87351418  0.22590085  0.66987006     0.18000
C791        C  0.76674676  0.19061181  0.56909809     0.12000
C792        C  0.80912551  0.14893800  0.52096291    -0.12300
H793        H  0.88740945  0.16092066  0.58420322     0.12300
C794        C  0.89166305  0.26081588  0.71462874    -0.23200
H795        H  0.81558439  0.23941335  0.65707591     0.07900
C796        C  0.74938315  0.14896395  0.57043084     0.04300
C797        C  0.70792245  0.14507789  0.54019664    -0.20400
C798        C  0.68201456  0.18247161  0.50981083    -0.12700
C799        C  0.70206467  0.22726131  0.01872342     0.13000
C800        C  0.74195483  0.22873436  0.54162433    -0.23100
C801        C  0.77374477  0.10759934  0.60379034    -0.06200
H802        H  0.69714628  0.11171317  0.54130665     0.14500
C803        C  0.67945066  0.27214158  0.99459755    -0.16400
H804        H  0.75836203  0.26181659  0.05257917     0.08800
H805        H  0.90612556  0.24311510  0.75459128     0.06700
H806        H  0.86878195  0.28411725  0.71300699     0.07900
H807        H  0.91237186  0.28333279  0.71074667     0.06900
H808        H  0.78840131  0.17823117  0.99111181     0.01800
H809        H  0.79274917  0.11927387  0.52329517     0.02300
H810        H  0.82912480  0.13994744  0.00781529     0.05800
H811        H  0.76497604  0.09787277  0.63274658     0.04800
H812        H  0.80606323  0.11401430  0.62776254    -0.01000
H813        H  0.76810845  0.07798581  0.57673047     0.00500
H814        H  0.69969996  0.30108246  0.00177225     0.04200
H815        H  0.66294215  0.28216888  0.01367854     0.06100
H816        H  0.65890088  0.26988159  0.95016971     0.07000
C817        C  0.63691067  0.67718516  0.47451800     0.86300
C818        C  0.62136989  0.68771637  0.41505788    -0.53900
C819        C  0.58113990  0.68882075  0.38140881     0.09200
C820        C  0.56014071  0.66887866  0.40959052     0.20200
C821        C  0.61087988  0.71010715  0.98730869    -0.54700
C822        C  0.57050852  0.70387274  0.45368170     0.09300
C823        C  0.62134537  0.62851282  0.47422068    -0.54200
C824        C  0.58117173  0.62415698  0.44392991     0.09900
H825        H  0.64053912  0.70163431  0.40262734     0.14400
H826        H  0.52830417  0.66253558  0.38026436     0.00100
H827        H  0.62471760  0.73277759  0.02136951     0.14700
H828        H  0.63873730  0.60499284  0.00575197     0.14500
C829        C  0.94175608  0.70533472  0.17542222     0.86300
C830        C  0.97102063  0.71638803  0.23598994    -0.53900
C831        C  0.00841583  0.72764420  0.24972091     0.09200
C832        C  0.01534970  0.71510465  0.20373112     0.20200
C833        C  0.94828385  0.74450150  0.14511867    -0.54700
C834        C  0.98675138  0.74818660  0.15892333     0.09300
C835        C  0.96059430  0.66189585  0.16581209    -0.54200
C836        C  0.99851489  0.66728870  0.17756581     0.09900
H837        H  0.96252530  0.72214157  0.26494007     0.14400
H838        H  0.04704152  0.71740549  0.21734126     0.00100
H839        H  0.92420033  0.76611509  0.11463350     0.14700
H840        H  0.94363119  0.63156392  0.14497096     0.14500
O841        O  0.54459266  0.47687803  0.99038830    -0.73100
O842        O  0.58774237  0.58120565  0.10242930    -0.74100
O843        O  0.54434464  0.49539857  0.08926551    -0.62700
O844        O  0.58487914  0.56372098  0.00311364    -0.71100
O845        O  0.52799799  0.60208116  0.95556447    -0.70700
O846        O  0.48896753  0.53680514  0.04335713    -0.62000
O847        O  0.53179593  0.62163019  0.05669869    -0.74500
O848        O  0.48755427  0.51295224  0.44806925    -0.73200
Cu849      Cu  0.56728486  0.52804401  0.04787814     1.04600
Cu850      Cu  0.50702120  0.56983814  0.99842611     1.04300
C851        C  0.50920193  0.47741754  0.45380158     0.93100
C852        C  0.56766525  0.61778977  0.09765428     0.92200
C853        C  0.50952673  0.50553985  0.07913817     0.84300
C854        C  0.56332456  0.59461591  0.96689365     0.90600
O855        O  0.99516760  0.63721067  0.51777561    -0.73100
O856        O  0.03238595  0.52412602  0.11625996    -0.74100
O857        O  0.99244881  0.61193233  0.10943330    -0.62700
O858        O  0.03499225  0.54977238  0.02098211    -0.71100
O859        O  0.09226467  0.58440699  0.07233663    -0.70700
O860        O  0.04974974  0.64695123  0.15825630    -0.62000
O861        O  0.09076356  0.55708207  0.16499167    -0.74500
O862        O  0.05163682  0.67058612  0.06130612    -0.73200
Cu863      Cu  0.01149951  0.57935514  0.06333643     1.04600
Cu864      Cu  0.07290996  0.61606106  0.11632342     1.04300
C865        C  0.01705845  0.67142293  0.52302775     0.93100
C866        C  0.06861507  0.52189658  0.15560636     0.92200
C867        C  0.01450676  0.64011252  0.14767102     0.84300
C868        C  0.07098297  0.55610790  0.03428587     0.90600
C869        C  0.43099862  0.96158641  0.10419421     0.86300
C870        C  0.45848952  0.99702144  0.10189972    -0.53900
C871        C  0.49179138  0.97902714  0.10576532     0.09200
C872        C  0.49590102  0.92573785  0.11665212     0.20200
C873        C  0.42376946  0.92510551  0.06146393    -0.54700
C874        C  0.45765773  0.90615641  0.06770315     0.09300
C875        C  0.45697539  0.93410079  0.15748639    -0.54200
C876        C  0.49061443  0.91479796  0.16431373     0.09900
H877        H  0.44693353  0.53203158  0.08878970     0.14400
H878        H  0.52419593  0.91095515  0.12548384     0.00100
H879        H  0.39435617  0.91395314  0.03033820     0.14700
H880        H  0.44618133  0.92290361  0.18275676     0.14500
C881        C  0.14816039  0.99421123  0.52394016     0.86300
C882        C  0.12541826  0.03834335  0.52269046    -0.53900
C883        C  0.08618805  0.03182002  0.50520809     0.09200
C884        C  0.07256799  0.98167643  0.48337139     0.20200
C885        C  0.14404236  0.95646197  0.05980465    -0.54700
C886        C  0.09968698  0.95204043  0.53358842     0.09300
C887        C  0.12485614  0.97649122  0.46552534    -0.54200
C888        C  0.08610655  0.96682288  0.44444696     0.09900
H889        H  0.14488942  0.56386108  0.05201299     0.14400
H890        H  0.04034162  0.97655979  0.46437771     0.00100
H891        H  0.16670586  0.93817121  0.09562823     0.14700
H892        H  0.13982797  0.96426003  0.44598591     0.14500
C893        C  0.14530754  0.92529187  0.24022965     0.86300
C894        C  0.11586570  0.95371891  0.18811739    -0.53900
C895        C  0.08768373  0.97884970  0.19113295     0.09200
C896        C  0.09010432  0.97031010  0.24541526     0.20200
C897        C  0.16119559  0.96132914  0.28507857    -0.54700
C898        C  0.13266304  0.98496690  0.28722684     0.09300
C899        C  0.11791908  0.89448428  0.24915926    -0.54200
C900        C  0.09038071  0.91710925  0.25500882     0.09900
H901        H  0.11917620  0.95783849  0.15386916     0.14400
H902        H  0.06717630  0.98958962  0.24838271     0.00100
H903        H  0.19245574  0.96934056  0.31083253     0.14700
H904        H  0.12125522  0.85791603  0.25444237     0.14500
C905        C  0.42966708  0.89200502  0.35052732     0.86300
C906        C  0.45487464  0.91771116  0.40538841    -0.53900
C907        C  0.49006770  0.93505590  0.41580711     0.09200
C908        C  0.49786827  0.92217133  0.37053693     0.20200
C909        C  0.42615106  0.92844442  0.31002632    -0.54700
C910        C  0.46155025  0.94430272  0.32115558     0.09300
C911        C  0.45720693  0.85424401  0.35039668    -0.54200
C912        C  0.49186406  0.86951277  0.35682600     0.09900
H913        H  0.44349124  0.92928877  0.42971339     0.14400
H914        H  0.52667993  0.93526325  0.37892524     0.00100
H915        H  0.39796287  0.94237070  0.27756717     0.14700
H916        H  0.44731646  0.81948568  0.33740857     0.14500
O917        O  0.58601356  0.78668631  0.25143157    -0.73100
O918        O  0.54438566  0.85217243  0.33866442    -0.74100
O919        O  0.58518820  0.76374162  0.34738729    -0.62700
O920        O  0.54479471  0.87373478  0.24141692    -0.71100
O921        O  0.48724161  0.83832568  0.19357392    -0.70700
O922        O  0.52820472  0.72774000  0.29906171    -0.62000
O923        O  0.48810354  0.81480288  0.29070097    -0.73300
O924        O  0.52879035  0.75200484  0.20121482    -0.73200
Cu925      Cu  0.56702899  0.82018511  0.29639890     1.04600
Cu926      Cu  0.50616687  0.78210257  0.24428901     1.04300
C927        C  0.56452134  0.75810714  0.21349671     0.93100
C928        C  0.50936574  0.84397139  0.32812979     0.92200
C929        C  0.56381712  0.72827179  0.34022486     0.84300
C930        C  0.50883136  0.87345947  0.20108973     0.90600
O931        O  0.03794223  0.90027460  0.27232971    -0.73100
O932        O  0.99951950  0.83400148  0.36032019    -0.74100
O933        O  0.03457257  0.92362272  0.36658941    -0.62700
O934        O  0.00226884  0.80819383  0.26881149    -0.71100
O935        O  0.06071353  0.77431180  0.32250661    -0.70700
O936        O  0.09375848  0.89060077  0.41726191    -0.62000
O937        O  0.05824288  0.80146362  0.41452818    -0.74500
O938        O  0.09571708  0.86422327  0.32333079    -0.73200
Cu939      Cu  0.01663071  0.86767884  0.31508004     1.04600
Cu940      Cu  0.07922186  0.83197050  0.37125311     1.04300
C941        C  0.07355092  0.89292759  0.28461445     0.93100
C942        C  0.02169497  0.80529558  0.39881220     0.92200
C943        C  0.07025704  0.92508648  0.40768888     0.84300
C944        C  0.02493800  0.77211304  0.28183604     0.90600
C945        C  0.64683401  0.68998564  0.21653688     0.86300
C946        C  0.62231178  0.73490531  0.20661418    -0.53900
C947        C  0.58280637  0.72874247  0.18810282     0.09200
C948        C  0.57104275  0.67690645  0.17308864     0.20200
C949        C  0.63653802  0.66224288  0.25273704    -0.54700
C950        C  0.59672572  0.65441512  0.22987118     0.09300
C951        C  0.62682313  0.66340503  0.16335332    -0.54200
C952        C  0.58750595  0.65536977  0.14013411     0.09900
H953        H  0.63720187  0.76664913  0.22625532     0.14400
H954        H  0.53869911  0.67162327  0.15008281     0.00100
H955        H  0.65756526  0.65855116  0.29544479     0.14700
H956        H  0.64368011  0.64835543  0.14766767     0.14500
C957        C  0.94669615  0.72079317  0.38447181     0.86300
C958        C  0.96285780  0.76839241  0.38600537    -0.53900
C959        C  0.00283547  0.77270147  0.41923161     0.09200
C960        C  0.02297718  0.72731208  0.45329377     0.20200
C961        C  0.97293418  0.68862688  0.37258904    -0.54700
C962        C  0.01377058  0.69106539  0.41029582     0.09300
C963        C  0.96038046  0.70774817  0.44251139    -0.54200
C964        C  0.00020798  0.70795173  0.47872730     0.09900
H965        H  0.94471777  0.79338326  0.35407068     0.14400
H966        H  0.05333109  0.73351240  0.48538540     0.00100
H967        H  0.96053128  0.66625793  0.33795762     0.14700
H968        H  0.94034855  0.69051974  0.45135868     0.14500
C969        C  0.83639589  0.74108368  0.33541967    -0.22700
C970        C  0.81782770  0.70439842  0.30037466     0.09300
C971        C  0.83990936  0.67665572  0.28591889     0.09700
C972        C  0.88113146  0.68330069  0.31151446    -0.17600
C973        C  0.90073665  0.71917657  0.34891745    -0.28000
C974        C  0.87669276  0.75024960  0.35793921     0.18000
C975        C  0.77468790  0.69807411  0.27778688     0.12000
C976        C  0.81982046  0.64068307  0.24274478    -0.12300
H977        H  0.89764212  0.65962221  0.30219132     0.12300
C978        C  0.89156070  0.79515088  0.38807829    -0.23200
H979        H  0.81863136  0.76374518  0.34391338     0.07900
C980        C  0.76098081  0.66721683  0.30144481     0.04300
C981        C  0.72017437  0.66586031  0.28181244    -0.20400
C982        C  0.69192486  0.69555853  0.23946445    -0.12700
C983        C  0.70642661  0.72556920  0.21499803     0.13000
C984        C  0.74732592  0.72683035  0.23515329    -0.23100
C985        C  0.78952234  0.63585417  0.34793147    -0.06200
H986        H  0.71085419  0.63989391  0.29909052     0.14500
C987        C  0.67951467  0.75523270  0.16594487    -0.16400
H988        H  0.75824385  0.75043828  0.21724288     0.08800
H989        H  0.87023121  0.81086042  0.39703922     0.06700
H990        H  0.89537157  0.82050567  0.36269573     0.07900
H991        H  0.91988482  0.79059999  0.42700496     0.06900
H992        H  0.79662113  0.65753317  0.20414745     0.01800
H993        H  0.80580549  0.61451811  0.25481481     0.02300
H994        H  0.84109044  0.62263019  0.23527880     0.05800
H995        H  0.77414347  0.61417858  0.36244066     0.04800
H996        H  0.81181188  0.65679705  0.38247548    -0.01000
H997        H  0.80503651  0.61245088  0.33506975     0.00500
H998        H  0.66282140  0.78074336  0.17442977     0.04200
H999        H  0.65934158  0.73273864  0.13220522     0.06100
H1000       H  0.69622414  0.77518440  0.15214259     0.07000
C1001       C  0.57648619  0.59113544  0.32773893    -0.22700
C1002       C  0.53535723  0.59705599  0.29870441     0.09300
C1003       C  0.51644261  0.62919728  0.25635525     0.09700
C1004       C  0.53857923  0.64967549  0.23861931    -0.17600
C1005       C  0.57866666  0.63747982  0.26005421    -0.28000
C1006       C  0.59829252  0.60810222  0.30679496     0.18000
C1007       C  0.51244918  0.55896382  0.29907544     0.12000
C1008       C  0.47232427  0.63931836  0.22668213    -0.12300
H1009       H  0.52251739  0.67298963  0.20533025     0.12300
C1010       C  0.63978392  0.58888354  0.33133235    -0.23200
H1011       H  0.59019077  0.56676626  0.36151268     0.07900
C1012       C  0.51548246  0.51565662  0.27952920     0.04300
C1013       C  0.49231576  0.97694253  0.27832145    -0.20400
C1014       C  0.46681865  0.98438520  0.29647686    -0.12700
C1015       C  0.46096326  0.53135737  0.31139619     0.13000
C1016       C  0.48456428  0.56696867  0.31303903    -0.23100
C1017       C  0.54300642  0.50641879  0.25978021    -0.06200
H1018       H  0.49794356  0.94203092  0.27064408     0.14500
C1019       C  0.43109208  0.54302930  0.32628379    -0.16400
H1020       H  0.48162435  0.60090944  0.32598965     0.08800
H1021       H  0.64524224  0.55823277  0.35763942     0.06700
H1022       H  0.66183063  0.61482308  0.35786311     0.07900
H1023       H  0.64455307  0.57716480  0.29909221     0.06900
H1024       H  0.46486960  0.65397905  0.25521546     0.01800
H1025       H  0.45532636  0.60727446  0.20870428     0.02300
H1026       H  0.46242519  0.66486538  0.19315199     0.05800
H1027       H  0.53971479  0.96713873  0.24340709     0.04800
H1028       H  0.57439601  0.50928318  0.29335672    -0.01000
H1029       H  0.53629197  0.53084123  0.22635118     0.00500
H1030       H  0.44587172  0.56083000  0.36579576     0.04200
H1031       H  0.41551316  0.51299715  0.32906794     0.06100
H1032       H  0.40845254  0.56725235  0.29528934     0.07000
C1033       C  0.11029456  0.63618181  0.43210006    -0.22700
C1034       C  0.09450379  0.59877821  0.39856200     0.09300
C1035       C  0.05477182  0.58662376  0.37702615     0.09700
C1036       C  0.03030640  0.61617399  0.38444439    -0.17600
C1037       C  0.04429672  0.65810948  0.41237960    -0.28000
C1038       C  0.08639781  0.66565184  0.44063341     0.18000
C1039       C  0.11670778  0.58023397  0.37615552     0.12000
C1040       C  0.03682495  0.54399644  0.34360858    -0.12300
H1041       H  0.99991909  0.60612138  0.36719771     0.12300
C1042       C  0.10854531  0.70314727  0.48018670    -0.23200
H1043       H  0.14135399  0.64365230  0.44926221     0.07900
C1044       C  0.10536275  0.59311283  0.32348330     0.04300
C1045       C  0.11542271  0.56389350  0.29520787    -0.20400
C1046       C  0.14073080  0.02484569  0.32185771    -0.12700
C1047       C  0.15724011  0.51771465  0.37640377     0.13000
C1048       C  0.14653838  0.54701684  0.40454542    -0.23100
C1049       C  0.08139969  0.63634715  0.29703408    -0.06200
H1050       H  0.10258506  0.57031313  0.25248187     0.14500
C1051       C  0.18872616  0.98041380  0.40820881    -0.16400
H1052       H  0.15895004  0.54217762  0.44713548     0.08800
H1053       H  0.09672696  0.73681614  0.46043093     0.06700
H1054       H  0.14058765  0.70351802  0.49478190     0.07900
H1055       H  0.10765019  0.69723788  0.51703606     0.06900
H1056       H  0.05893317  0.52215524  0.34153310     0.01800
H1057       H  0.01300209  0.55415753  0.30169417     0.02300
H1058       H  0.02374480  0.52279132  0.36181448     0.05800
H1059       H  0.07823239  0.64265476  0.25758377     0.04800
H1060       H  0.09682380  0.66647047  0.32300148    -0.01000
H1061       H  0.05151164  0.63364812  0.29069257     0.00500
H1062       H  0.20101231  0.98205108  0.45214583     0.04200
H1063       H  0.21403709  0.98284513  0.40262857     0.06100
H1064       H  0.17392276  0.94671505  0.39312461     0.07000
C1065       C  0.24400315  0.85607471  0.29543974    -0.22700
C1066       C  0.26088393  0.87990037  0.27115562     0.09300
C1067       C  0.23698678  0.91246276  0.22961068     0.09700
C1068       C  0.19789553  0.92186680  0.21596106    -0.17600
C1069       C  0.18170359  0.90126585  0.24391715    -0.28000
C1070       C  0.20659232  0.86832338  0.28591124     0.18000
C1071       C  0.30471403  0.87442101  0.29474516     0.12000
C1072       C  0.25340465  0.94004192  0.20210284    -0.12300
H1073       H  0.18175762  0.94914956  0.18679513     0.12300
C1074       C  0.19703348  0.84833056  0.32548480    -0.23200
H1075       H  0.26180214  0.82967659  0.32566878     0.07900
C1076       C  0.33312295  0.88471950  0.34967367     0.04300
C1077       C  0.37373048  0.88360951  0.36858643    -0.20400
C1078       C  0.38746625  0.87627806  0.33365649    -0.12700
C1079       C  0.35912850  0.86049805  0.28016487     0.13000
C1080       C  0.31846326  0.85984144  0.26190793    -0.23100
C1081       C  0.32112169  0.89976953  0.38837902    -0.06200
H1082       H  0.39434389  0.89023788  0.41104490     0.14500
C1083       C  0.37068999  0.84426694  0.24126228    -0.16400
H1084       H  0.29694494  0.84879808  0.22096187     0.08800
H1085       H  0.22358723  0.83213793  0.36133142     0.06700
H1086       H  0.17518920  0.82040057  0.30630536     0.07900
H1087       H  0.18676285  0.87565604  0.34179567     0.06900
H1088       H  0.26095288  0.91691701  0.17871638     0.01800
H1089       H  0.28195059  0.46552873  0.24259171     0.02300
H1090       H  0.23406482  0.47476017  0.18179563     0.05800
H1091       H  0.34783650  0.40569082  0.43102862     0.04800
H1092       H  0.30722714  0.87103156  0.39718343    -0.01000
H1093       H  0.30066938  0.42623308  0.37556030     0.00500
H1094       H  0.38994234  0.81308254  0.25787055     0.04200
H1095       H  0.38588412  0.87137361  0.23251255     0.06100
H1096       H  0.34433387  0.83442566  0.20155871     0.07000
C1097       C  0.25980983  0.95940707  0.06637744    -0.22700
C1098       C  0.27657892  0.00260845  0.07167419     0.09300
C1099       C  0.25444027  0.04248893  0.06685174     0.09700
C1100       C  0.21156777  0.03954753  0.55192711    -0.17600
C1101       C  0.19763763  0.99464603  0.04902152    -0.28000
C1102       C  0.22092438  0.95444590  0.05443494     0.18000
C1103       C  0.31735174  0.00388472  0.08167836     0.12000
C1104       C  0.26885420  0.58628346  0.56416547    -0.12300
H1105       H  0.19563871  0.07128686  0.54736488     0.12300
C1106       C  0.20599611  0.90545729  0.04700950    -0.23200
H1107       H  0.27736713  0.92900407  0.07068113     0.07900
C1108       C  0.35112847  0.99802262  0.13418808     0.04300
C1109       C  0.38803909  0.98787610  0.14089730    -0.20400
C1110       C  0.39238824  0.98306638  0.09614281    -0.12700
C1111       C  0.35959046  0.99782045  0.04450292     0.13000
C1112       C  0.32227085  0.00599106  0.03768334    -0.23100
C1113       C  0.34643554  0.49157313  0.18441431    -0.06200
H1114       H  0.41338612  0.98327729  0.18179046     0.14500
C1115       C  0.36224912  0.00597544  0.99553984    -0.16400
H1116       H  0.29661417  0.01323192  0.99746796     0.08800
H1117       H  0.22665651  0.88043720  0.04559342     0.06700
H1118       H  0.17708981  0.90148485  0.00855362     0.07900
H1119       H  0.20407946  0.89429392  0.08177683     0.06900
H1120       H  0.27343841  0.09449607  0.53255259     0.01800
H1121       H  0.30202596  0.58407254  0.12214341     0.02300
H1122       H  0.24928310  0.61484307  0.56198771     0.05800
H1123       H  0.37089970  0.51175125  0.21731756     0.04800
H1124       H  0.33009432  0.97327024  0.18402403    -0.01000
H1125       H  0.31828304  0.50721257  0.17620738     0.00500
H1126       H  0.34098410  0.98351760  0.96214117     0.04200
H1127       H  0.39216359  0.99994213  0.00309170     0.06100
H1128       H  0.35401033  0.04247785  0.98189092     0.07000
C1129       C  0.03617417  0.86677143  0.04509847    -0.22700
C1130       C  0.05706430  0.82506282  0.05704279     0.09300
C1131       C  0.09388784  0.82314659  0.06117002     0.09700
C1132       C  0.10958669  0.86419531  0.05577029    -0.17600
C1133       C  0.09007728  0.90661077  0.04923806    -0.28000
C1134       C  0.05342935  0.90750181  0.04520657     0.18000
C1135       C  0.04385830  0.79100251  0.08064120     0.12000
C1136       C  0.11731722  0.77919834  0.07193705    -0.12300
H1137       H  0.13182320  0.86721220  0.55318250     0.12300
C1138       C  0.03439724  0.95050252  0.04908941    -0.23200
H1139       H  0.00842558  0.86857311  0.04361682     0.07900
C1140       C  0.06320210  0.79062417  0.13748352     0.04300
C1141       C  0.04043267  0.78722367  0.16015999    -0.20400
C1142       C  0.00097380  0.77280751  0.12903091    -0.12700
C1143       C  0.98231904  0.76808727  0.07254410     0.13000
C1144       C  0.00354263  0.77976960  0.04895015    -0.23100
C1145       C  0.10752545  0.79456690  0.17453631    -0.06200
H1146       H  0.05469126  0.79118905  0.20358362     0.14500
C1147       C  0.94048915  0.75114192  0.03713630    -0.16400
H1148       H  0.98776818  0.78479195  0.00543795     0.08800
H1149       H  0.05671612  0.97767025  0.06677206     0.06700
H1150       H  0.01767411  0.94873795  0.57178314     0.07900
H1151       H  0.00835550  0.96065551  0.00880459     0.06900
H1152       H  0.10141148  0.74865248  0.07354050     0.01800
H1153       H  0.14636326  0.78174778  0.11086933     0.02300
H1154       H  0.12332045  0.77433615  0.03947408     0.05800
H1155       H  0.11718482  0.79042354  0.21766670     0.04800
H1156       H  0.11778885  0.82832071  0.16876928    -0.01000
H1157       H  0.12222069  0.76583445  0.16676642     0.00500
H1158       H  0.91932173  0.77640114  0.03668932     0.04200
H1159       H  0.93758550  0.71658470  0.05117967     0.06100
H1160       H  0.93172353  0.74718825  0.99481183     0.07000
C1161       C  0.47718030  0.82791464  0.98026780    -0.22700
C1162       C  0.45565090  0.78884721  0.97639547     0.09300
C1163       C  0.43177728  0.78956406  0.99842277     0.09700
C1164       C  0.43083447  0.82962518  0.02477477    -0.17600
C1165       C  0.45684756  0.86641722  0.03496267    -0.28000
C1166       C  0.48180824  0.86373436  0.01445014     0.18000
C1167       C  0.47222568  0.74626506  0.96857303     0.12000
C1168       C  0.40873346  0.74816761  0.99675437    -0.12300
H1169       H  0.41217064  0.83044457  0.04123073     0.12300
C1170       C  0.51570462  0.89550764  0.03082210    -0.23200
H1171       H  0.49639776  0.82632167  0.96454046     0.07900
C1172       C  0.46652673  0.73833721  0.41785379     0.04300
C1173       C  0.49897800  0.72687139  0.41350015    -0.20400
C1174       C  0.53738208  0.72271281  0.95956384    -0.12700
C1175       C  0.54218847  0.72872452  0.01077438     0.13000
C1176       C  0.50898109  0.73451516  0.01460175    -0.23100
C1177       C  0.42522127  0.74232138  0.36831965    -0.06200
H1178       H  0.49369334  0.72296649  0.37332587     0.14500
C1179       C  0.58178974  0.73474821  0.06112168    -0.16400
H1180       H  0.51338931  0.74095043  0.05410708     0.08800
H1181       H  0.50495712  0.93140096  0.02576095     0.06700
H1182       H  0.52899032  0.89049077  0.00619048     0.07900
H1183       H  0.54039409  0.88759938  0.07266237     0.06900
H1184       H  0.41195301  0.71892475  0.97494270     0.01800
H1185       H  0.37676150  0.75754734  0.97561979     0.02300
H1186       H  0.41937977  0.73655840  0.03879087     0.05800
H1187       H  0.42481435  0.73598736  0.33054974     0.04800
H1188       H  0.41236456  0.77710163  0.36554178    -0.01000
H1189       H  0.40613806  0.71636261  0.37122492     0.00500
H1190       H  0.59571686  0.76605778  0.05685821     0.04200
H1191       H  0.59987585  0.70319424  0.06866495     0.06100
H1192       H  0.57959603  0.74122087  0.09657154     0.07000
C1193       C  0.83368852  0.72096623  0.14625561    -0.22700
C1194       C  0.81153462  0.69715507  0.09756639     0.09300
C1195       C  0.83127880  0.67849718  0.07369140     0.09700
C1196       C  0.87286445  0.68086078  0.10118874    -0.17600
C1197       C  0.89640855  0.70179383  0.15252179    -0.28000
C1198       C  0.87526928  0.72544385  0.17287205     0.18000
C1199       C  0.76760086  0.69309439  0.07134620     0.12000
C1200       C  0.80832370  0.65767925  0.01793414    -0.12300
H1201       H  0.88689871  0.66752169  0.08087043     0.12300
C1202       C  0.89415192  0.75865976  0.21937437    -0.23200
H1203       H  0.81804558  0.73703730  0.16313850     0.07900
C1204       C  0.74988582  0.65056195  0.06862048     0.04300
C1205       C  0.70840854  0.64711933  0.03792883    -0.20400
C1206       C  0.68265110  0.68568680  0.01175809    -0.12700
C1207       C  0.70140755  0.72739765  0.51722068     0.13000
C1208       C  0.74301595  0.73203858  0.04693612    -0.23100
C1209       C  0.77388190  0.60761509  0.09769348    -0.06200
H1210       H  0.69742406  0.61282693  0.03421211     0.14500
C1211       C  0.67814553  0.77197892  0.49350808    -0.16400
H1212       H  0.75716164  0.76271959  0.54852810     0.08800
H1213       H  0.90890356  0.73949353  0.25845415     0.06700
H1214       H  0.87166846  0.78146193  0.21948140     0.07900
H1215       H  0.91478158  0.78179126  0.21608985     0.06900
H1216       H  0.78888853  0.67822154  0.48985830     0.01800
H1217       H  0.79167039  0.62725723  0.01782542     0.02300
H1218       H  0.83014685  0.64034564  0.50790379     0.05800
H1219       H  0.76504485  0.59464206  0.12554097     0.04800
H1220       H  0.80625825  0.61359957  0.12235906    -0.01000
H1221       H  0.76796799  0.58044212  0.06769629     0.00500
H1222       H  0.69784719  0.80115363  0.49922017     0.04200
H1223       H  0.66276515  0.78188197  0.51422138     0.06100
H1224       H  0.65652389  0.76939319  0.44939353     0.07000
C1225       C  0.63677410  0.67891748  0.97436541     0.86300
C1226       C  0.62152275  0.68963703  0.91504390    -0.53900
C1227       C  0.58134777  0.69036361  0.88099657     0.09200
C1228       C  0.56014838  0.66999177  0.90874285     0.20200
C1229       C  0.61136586  0.70879416  0.48772039    -0.54700
C1230       C  0.57009870  0.70474949  0.95304708     0.09300
C1231       C  0.62144724  0.63006969  0.97397769    -0.54200
C1232       C  0.58130160  0.62528811  0.94299444     0.09900
H1233       H  0.64080036  0.70392254  0.90299430     0.14400
H1234       H  0.52836979  0.66340061  0.87911461     0.00100
H1235       H  0.62551650  0.73153791  0.52170519     0.14700
H1236       H  0.63879106  0.60278142  0.50521541     0.14500
C1237       C  0.94213641  0.70428785  0.67720154     0.86300
C1238       C  0.97114373  0.71761341  0.73718518    -0.53900
C1239       C  0.00814496  0.72999143  0.74989155     0.09200
C1240       C  0.01513039  0.71722659  0.70415636     0.20200
C1241       C  0.94694562  0.74306954  0.64506922    -0.54700
C1242       C  0.98497528  0.74843604  0.65802340     0.09300
C1243       C  0.96248323  0.66137980  0.66939267    -0.54200
C1244       C  0.00013473  0.66845125  0.68066073     0.09900
H1245       H  0.96267200  0.72366003  0.76580368     0.14400
H1246       H  0.04665877  0.72081238  0.71726134     0.00100
H1247       H  0.92203226  0.76356799  0.61428998     0.14700
H1248       H  0.94669618  0.63002160  0.65014688     0.14500
O1249       O  0.54540475  0.47649758  0.49346915    -0.73100
O1250       O  0.58763257  0.58175020  0.60431776    -0.74100
O1251       O  0.54445213  0.49562018  0.59153693    -0.62700
O1252       O  0.58513072  0.56359721  0.50536167    -0.71100
O1253       O  0.52797185  0.60124443  0.45687634    -0.70700
O1254       O  0.48905537  0.53692514  0.54504814    -0.62000
O1255       O  0.53161568  0.62192523  0.55768659    -0.74500
O1256       O  0.48705167  0.51409782  0.94533751    -0.73200
Cu1257     Cu  0.56757617  0.52815248  0.55032532     1.04600
Cu1258     Cu  0.50713031  0.56946113  0.50012523     1.04300
C1259       C  0.50843211  0.47842376  0.95060032     0.93100
C1260       C  0.56744975  0.61842392  0.59883633     0.92200
C1261       C  0.50941744  0.50555371  0.58071931     0.84300
C1262       C  0.56338123  0.59394924  0.46847364     0.90600
O1263       O  0.99416668  0.63531879  0.01336141    -0.73100
O1264       O  0.03564872  0.52633670  0.62115488    -0.74100
O1265       O  0.99516321  0.61288605  0.61419295    -0.62700
O1266       O  0.03520839  0.55230466  0.52291181    -0.71100
O1267       O  0.09302409  0.58594940  0.57340020    -0.70700
O1268       O  0.05202108  0.64910735  0.66210881    -0.62000
O1269       O  0.09368149  0.56020994  0.66952730    -0.74500
O1270       O  0.05274450  0.67249533  0.56418732    -0.73200
Cu1271     Cu  0.01343881  0.58118132  0.56751374     1.04600
Cu1272     Cu  0.07481007  0.61822785  0.61940134     1.04300
C1273       C  0.01630681  0.66947438  0.01929731     0.93100
C1274       C  0.07182387  0.52489382  0.66080869     0.92200
C1275       C  0.01688862  0.64154819  0.65179106     0.84300
C1276       C  0.07076523  0.55851373  0.53454993     0.90600
C1277       C  0.42765106  0.96076221  0.60189142     0.86300
C1278       C  0.45454644  0.99720640  0.59941138    -0.53900
C1279       C  0.48860991  0.98028296  0.60446623     0.09200
C1280       C  0.49386825  0.92725196  0.61624362     0.20200
C1281       C  0.42182523  0.92421581  0.55999315    -0.54700
C1282       C  0.45639270  0.90632915  0.56726861     0.09300
C1283       C  0.45412030  0.93404184  0.65581834    -0.54200
C1284       C  0.48845347  0.91610398  0.66358262     0.09900
H1285       H  0.44614234  0.53173410  0.58847133     0.14400
H1286       H  0.52274588  0.91362952  0.62602192     0.00100
H1287       H  0.39275037  0.91238981  0.52847991     0.14700
H1288       H  0.44347038  0.92163034  0.68078171     0.14500
C1289       C  0.15270714  0.99160012  0.02791599     0.86300
C1290       C  0.12965393  0.03523581  0.02749524    -0.53900
C1291       C  0.09031998  0.02836143  0.00942286     0.09200
C1292       C  0.07711009  0.97837134  0.98750928     0.20200
C1293       C  0.13916880  0.95995292  0.55635447    -0.54700
C1294       C  0.10466092  0.94818027  0.03723013     0.09300
C1295       C  0.12930679  0.97433491  0.96933256    -0.54200
C1296       C  0.09044055  0.96497861  0.94820349     0.09900
H1297       H  0.14241917  0.56772447  0.54515512     0.14400
H1298       H  0.04493728  0.97280684  0.96865365     0.00100
H1299       H  0.16171390  0.94202984  0.59276101     0.14700
H1300       H  0.14419211  0.96264635  0.94938428     0.14500
C1301       C  0.14634767  0.92831236  0.74218152     0.86300
C1302       C  0.11718118  0.95671783  0.68981010    -0.53900
C1303       C  0.08808072  0.98077705  0.69170161     0.09200
C1304       C  0.08931204  0.97111815  0.74491350     0.20200
C1305       C  0.16086014  0.96411420  0.78723399    -0.54700
C1306       C  0.13127768  0.98654407  0.78824463     0.09300
C1307       C  0.11881323  0.89652113  0.74970990    -0.54200
C1308       C  0.09034858  0.91807298  0.75432793     0.09900
H1309       H  0.12109376  0.96152636  0.65615428     0.14400
H1310       H  0.06523447  0.98906406  0.74645149     0.00100
H1311       H  0.19188289  0.97275419  0.81378095     0.14700
H1312       H  0.12299821  0.86011397  0.75584317     0.14500
C1313       C  0.43023674  0.89486204  0.85013394     0.86300
C1314       C  0.45579028  0.92084230  0.90447340    -0.53900
C1315       C  0.49079583  0.93784326  0.91406311     0.09200
C1316       C  0.49796647  0.92482547  0.86831585     0.20200
C1317       C  0.42614934  0.93098156  0.80891978    -0.54700
C1318       C  0.46126336  0.94673893  0.81904682     0.09300
C1319       C  0.45755995  0.85691603  0.84998469    -0.54200
C1320       C  0.49198212  0.87202181  0.85565473     0.09900
H1321       H  0.44483181  0.93275419  0.92920924     0.14400
H1322       H  0.52657348  0.93789596  0.87592477     0.00100
H1323       H  0.39797846  0.94542664  0.77712787     0.14700
H1324       H  0.44783644  0.82184627  0.83818266     0.14500
O1325       O  0.58527918  0.78866062  0.75016854    -0.73100
O1326       O  0.54432553  0.85407902  0.83774737    -0.74100
O1327       O  0.58510982  0.76545626  0.84668561    -0.62700
O1328       O  0.54359016  0.87545650  0.74009948    -0.71100
O1329       O  0.48610823  0.83968625  0.69359470    -0.70700
O1330       O  0.52834053  0.72895184  0.79854762    -0.62000
O1331       O  0.48831641  0.81591439  0.79108457    -0.73300
O1332       O  0.52800378  0.75400012  0.70022809    -0.73200
Cu1333     Cu  0.56655067  0.82199838  0.79536097     1.04600
Cu1334     Cu  0.50580569  0.78348478  0.74406626     1.04300
C1335       C  0.56365914  0.76017607  0.71223052     0.93100
C1336       C  0.50948283  0.84572061  0.82767149     0.92200
C1337       C  0.56394146  0.72976122  0.83967910     0.84300
C1338       C  0.50734233  0.87500971  0.70053023     0.90600
O1339       O  0.03878634  0.90168446  0.77326320    -0.73100
O1340       O  0.00042302  0.83526483  0.86099335    -0.74100
O1341       O  0.03761426  0.92396652  0.86961708    -0.62700
O1342       O  0.00185338  0.81051743  0.76889835    -0.71100
O1343       O  0.06053319  0.77688661  0.82105451    -0.70700
O1344       O  0.09673612  0.89031787  0.91807911    -0.62000
O1345       O  0.05948619  0.80417849  0.91603052    -0.74500
O1346       O  0.09640945  0.86497595  0.82283287    -0.73200
Cu1347     Cu  0.01774898  0.86923746  0.81632874     1.04600
Cu1348     Cu  0.08030542  0.83327795  0.87123929     1.04300
C1349       C  0.07405919  0.89381958  0.78446041     0.93100
C1350       C  0.02267151  0.80650558  0.89929348     0.92200
C1351       C  0.07367394  0.92467629  0.90998165     0.84300
C1352       C  0.02452300  0.77455782  0.78135345     0.90600
C1353       C  0.64616841  0.69267130  0.71600812     0.86300
C1354       C  0.62115178  0.73737132  0.70468473    -0.53900
C1355       C  0.58180967  0.73079452  0.68674756     0.09200
C1356       C  0.57061940  0.67871714  0.67317056     0.20200
C1357       C  0.63624052  0.66565187  0.75310467    -0.54700
C1358       C  0.59660832  0.65733831  0.73057222     0.09300
C1359       C  0.62643399  0.66483276  0.66368369    -0.54200
C1360       C  0.58716721  0.65653985  0.64065364     0.09900
H1361       H  0.63567596  0.76977739  0.72240577     0.14400
H1362       H  0.53830519  0.67306656  0.65033145     0.00100
H1363       H  0.65716090  0.66255712  0.79594284     0.14700
H1364       H  0.64341989  0.64926491  0.64846105     0.14500
C1365       C  0.94571058  0.72205151  0.88181300     0.86300
C1366       C  0.96331713  0.76913126  0.88478555    -0.53900
C1367       C  0.00351231  0.77208923  0.91772697     0.09200
C1368       C  0.02263314  0.72518860  0.94922039     0.20200
C1369       C  0.97001461  0.68900608  0.86750069    -0.54700
C1370       C  0.01073622  0.69037645  0.90394979     0.09300
C1371       C  0.95996211  0.70756515  0.93970687    -0.54200
C1372       C  0.99997442  0.70618206  0.97515510     0.09900
H1373       H  0.94548369  0.79543296  0.85449203     0.14400
H1374       H  0.05458743  0.72726723  0.98000576     0.00100
H1375       H  0.95692711  0.66575633  0.83354271     0.14700
H1376       H  0.93986275  0.69072700  0.94869699     0.14500
C1377       C  0.83660971  0.74788023  0.83576059    -0.22700
C1378       C  0.81658981  0.71212553  0.79992629     0.09300
C1379       C  0.83726463  0.68304721  0.78448090     0.09700
C1380       C  0.87851929  0.68799721  0.80896169    -0.17600
C1381       C  0.89972119  0.72272229  0.84737517    -0.28000
C1382       C  0.87726960  0.75467490  0.85841100     0.18000
C1383       C  0.77376714  0.70645768  0.77902416     0.12000
C1384       C  0.81566846  0.64661394  0.74231885    -0.12300
H1385       H  0.89383111  0.66360572  0.79847247     0.12300
C1386       C  0.89436540  0.79790340  0.89142580    -0.23200
H1387       H  0.81992345  0.77120623  0.84542087     0.07900
C1388       C  0.76098591  0.67753855  0.80540171     0.04300
C1389       C  0.72022841  0.67393696  0.78481156    -0.20400
C1390       C  0.69104411  0.69946689  0.73859059    -0.12700
C1391       C  0.70476216  0.72757600  0.71155864     0.13000
C1392       C  0.74568012  0.73132423  0.73290865    -0.23100
C1393       C  0.79052178  0.65020422  0.85543839    -0.06200
H1394       H  0.71195899  0.64924243  0.80459037     0.14500
C1395       C  0.67720342  0.75142859  0.65804338    -0.16400
H1396       H  0.75600021  0.75298750  0.71257368     0.08800
H1397       H  0.87434527  0.81342541  0.90286323     0.06700
H1398       H  0.89828652  0.82424684  0.86706097     0.07900
H1399       H  0.92306873  0.79127523  0.92933081     0.06900
H1400       H  0.79235048  0.66323535  0.70361688     0.01800
H1401       H  0.80157552  0.62197658  0.75601512     0.02300
H1402       H  0.83596485  0.62683689  0.73438736     0.05800
H1403       H  0.77578410  0.62911081  0.87139628     0.04800
H1404       H  0.81106808  0.67407437  0.88784785    -0.01000
H1405       H  0.80791031  0.62652538  0.84589975     0.00500
H1406       H  0.65613179  0.77495995  0.66013095     0.04200
H1407       H  0.66168058  0.72484160  0.62699510     0.06100
H1408       H  0.69342906  0.77266210  0.64447722     0.07000
C1409       C  0.57489387  0.58892130  0.82387629    -0.22700
C1410       C  0.53363850  0.59368286  0.79283964     0.09300
C1411       C  0.51508188  0.62676376  0.75150470     0.09700
C1412       C  0.53819564  0.65062780  0.73788839    -0.17600
C1413       C  0.57857879  0.63961182  0.76047466    -0.28000
C1414       C  0.59782053  0.60931435  0.80645543     0.18000
C1415       C  0.51053897  0.55560276  0.79263302     0.12000
C1416       C  0.47052066  0.63403431  0.71790688    -0.12300
H1417       H  0.52262580  0.67548710  0.70608793     0.12300
C1418       C  0.64075514  0.59430901  0.83513198    -0.23200
H1419       H  0.58827553  0.56389584  0.85698416     0.07900
C1420       C  0.51376007  0.51226251  0.77347054     0.04300
C1421       C  0.49090767  0.98081662  0.77540714    -0.20400
C1422       C  0.46572678  0.98735988  0.79421580    -0.12700
C1423       C  0.45855917  0.52840171  0.80402932     0.13000
C1424       C  0.48237830  0.56382191  0.80599061    -0.23100
C1425       C  0.54139420  0.50337932  0.75384783    -0.06200
H1426       H  0.49632900  0.94624528  0.76663560     0.14500
C1427       C  0.42822887  0.54039773  0.81795887    -0.16400
H1428       H  0.47942000  0.59789199  0.81878215     0.08800
H1429       H  0.64758469  0.56511609  0.86385244     0.06700
H1430       H  0.66012914  0.62288407  0.86005157     0.07900
H1431       H  0.64802500  0.58214481  0.80543705     0.06900
H1432       H  0.46003268  0.64659755  0.74396604     0.01800
H1433       H  0.45562416  0.60121721  0.69848261     0.02300
H1434       H  0.46113549  0.66008720  0.68499111     0.05800
H1435       H  0.53696075  0.97307146  0.73805971     0.04800
H1436       H  0.57271518  0.50758021  0.78714158    -0.01000
H1437       H  0.53402397  0.52731107  0.71972291     0.00500
H1438       H  0.44285949  0.55730680  0.85799985     0.04200
H1439       H  0.41168943  0.51070645  0.81917815     0.06100
H1440       H  0.40629516  0.56531221  0.78717121     0.07000
C1441       C  0.10813142  0.63402973  0.93639701    -0.22700
C1442       C  0.09457402  0.59314188  0.90863713     0.09300
C1443       C  0.05460935  0.58039167  0.88614594     0.09700
C1444       C  0.02852080  0.61114120  0.88886302    -0.17600
C1445       C  0.04028782  0.65631778  0.90690641    -0.28000
C1446       C  0.08077068  0.66773306  0.92945950     0.18000
C1447       C  0.11632113  0.57655355  0.88451492     0.12000
C1448       C  0.03769585  0.53719209  0.85372684    -0.12300
H1449       H  0.99820575  0.60088545  0.87266226     0.12300
C1450       C  0.09272996  0.71582574  0.92789008    -0.23200
H1451       H  0.13849532  0.64376338  0.95160314     0.07900
C1452       C  0.10358496  0.59038562  0.83135935     0.04300
C1453       C  0.11567018  0.56422719  0.80302422    -0.20400
C1454       C  0.13701393  0.02573471  0.82288272    -0.12700
C1455       C  0.16082783  0.51965420  0.88423870     0.13000
C1456       C  0.14891164  0.54664927  0.91283050    -0.23100
C1457       C  0.07628255  0.63137535  0.80416293    -0.06200
H1458       H  0.10227027  0.57093433  0.76014096     0.14500
C1459       C  0.19265425  0.98744413  0.90994935    -0.16400
H1460       H  0.16284599  0.54232218  0.95597058     0.08800
H1461       H  0.06690949  0.73236800  0.89270874     0.06700
H1462       H  0.11697643  0.71757037  0.91991629     0.07900
H1463       H  0.10293669  0.73332437  0.96643242     0.06900
H1464       H  0.06062949  0.51539738  0.85361393     0.01800
H1465       H  0.01483271  0.54661216  0.81105551     0.02300
H1466       H  0.02352409  0.51666696  0.87087544     0.05800
H1467       H  0.07225012  0.63865298  0.76429464     0.04800
H1468       H  0.08939740  0.66254477  0.82926478    -0.01000
H1469       H  0.04679249  0.62514457  0.79800781     0.00500
H1470       H  0.20587592  0.98902722  0.95428579     0.04200
H1471       H  0.21645086  0.99556904  0.90251675     0.06100
H1472       H  0.18208562  0.95179412  0.89666533     0.07000
C1473       C  0.24579790  0.86009073  0.79865662    -0.22700
C1474       C  0.26263714  0.88401306  0.77443429     0.09300
C1475       C  0.23884713  0.91659850  0.73293919     0.09700
C1476       C  0.19987559  0.92627617  0.71951488    -0.17600
C1477       C  0.18343021  0.90515048  0.74688663    -0.28000
C1478       C  0.20807411  0.87166473  0.78838430     0.18000
C1479       C  0.30622684  0.87800582  0.79742090     0.12000
C1480       C  0.25512069  0.94348834  0.70476479    -0.12300
H1481       H  0.18383230  0.95364997  0.69041561     0.12300
C1482       C  0.19753529  0.84931970  0.82585841    -0.23200
H1483       H  0.26360176  0.83362792  0.82874157     0.07900
C1484       C  0.33497565  0.88862571  0.85203110     0.04300
C1485       C  0.37540458  0.88698956  0.87024571    -0.20400
C1486       C  0.38846825  0.87917174  0.83464354    -0.12700
C1487       C  0.35980417  0.86294410  0.78162553     0.13000
C1488       C  0.31934378  0.86246232  0.76421761    -0.23100
C1489       C  0.32351358  0.90458573  0.89097453    -0.06200
H1490       H  0.39635498  0.89374996  0.91256577     0.14500
C1491       C  0.37077803  0.84625675  0.74227465    -0.16400
H1492       H  0.29751478  0.85108311  0.72364641     0.08800
H1493       H  0.22377037  0.83257984  0.86161594     0.06700
H1494       H  0.17615991  0.82121391  0.80472928     0.07900
H1495       H  0.18636851  0.87530568  0.84243589     0.06900
H1496       H  0.26236747  0.91986054  0.68144326     0.01800
H1497       H  0.28108876  0.45755875  0.73131343     0.02300
H1498       H  0.23174165  0.46486145  0.67293832     0.05800
H1499       H  0.35037954  0.41219566  0.93023537     0.04800
H1500       H  0.30883236  0.87665731  0.89956137    -0.01000
H1501       H  0.30395637  0.43366540  0.87368894     0.00500
H1502       H  0.39023172  0.81523285  0.75899369     0.04200
H1503       H  0.38556499  0.87325841  0.73265796     0.06100
H1504       H  0.34419987  0.83602968  0.70302951     0.07000
C1505       C  0.25394101  0.95976534  0.55986924    -0.22700
C1506       C  0.27092408  0.00261522  0.56392944     0.09300
C1507       C  0.24974856  0.04300556  0.56045170     0.09700
C1508       C  0.21580939  0.03815818  0.05671169    -0.17600
C1509       C  0.19301017  0.99644937  0.54494902    -0.28000
C1510       C  0.21562716  0.95568612  0.55015754     0.18000
C1511       C  0.31221788  0.00283415  0.57582239     0.12000
C1512       C  0.27391963  0.58360405  0.08175309    -0.12300
H1513       H  0.19933169  0.06944982  0.05144158     0.12300
C1514       C  0.20052561  0.90698392  0.54480145    -0.23200
H1515       H  0.27100593  0.92897751  0.56398739     0.07900
C1516       C  0.34467183  0.99207457  0.62818717     0.04300
C1517       C  0.38185306  0.98187027  0.63603489    -0.20400
C1518       C  0.38803918  0.98066493  0.59257490    -0.12700
C1519       C  0.35611997  0.99729221  0.54100515     0.13000
C1520       C  0.31862720  0.00692203  0.53324311    -0.23100
C1521       C  0.34003460  0.48660432  0.67371919    -0.06200
H1522       H  0.40588984  0.97500968  0.67722211     0.14500
C1523       C  0.35964195  0.00534184  0.49267612    -0.16400
H1524       H  0.29380476  0.01633665  0.49308493     0.08800
H1525       H  0.22044259  0.88123711  0.54274356     0.06700
H1526       H  0.17101997  0.90275499  0.50738061     0.07900
H1527       H  0.19979501  0.89712627  0.58089512     0.06900
H1528       H  0.27782558  0.09418455  0.03870658     0.01800
H1529       H  0.29748828  0.58812833  0.60379158     0.02300
H1530       H  0.25426346  0.61168605  0.08037293     0.05800
H1531       H  0.36194166  0.50930730  0.70639242     0.04800
H1532       H  0.34474944  0.95302978  0.69077342    -0.01000
H1533       H  0.31023369  0.49757309  0.66399227     0.00500
H1534       H  0.33810174  0.98347769  0.45865601     0.04200
H1535       H  0.38950013  0.99816672  0.50059432     0.06100
H1536       H  0.35243441  0.04208642  0.47959170     0.07000
C1537       C  0.03048312  0.87087004  0.54031533    -0.22700
C1538       C  0.05160293  0.82926027  0.55283459     0.09300
C1539       C  0.08863972  0.82757335  0.55753282     0.09700
C1540       C  0.10421143  0.86845968  0.55188136    -0.17600
C1541       C  0.08472671  0.91073740  0.54529473    -0.28000
C1542       C  0.04785498  0.91164818  0.54065684     0.18000
C1543       C  0.03875364  0.79547677  0.57711969     0.12000
C1544       C  0.11290871  0.78427284  0.56972355    -0.12300
H1545       H  0.13711033  0.86294293  0.05673877     0.12300
C1546       C  0.02922690  0.95471496  0.54510331    -0.23200
H1547       H  0.00262878  0.87259438  0.53850894     0.07900
C1548       C  0.05858093  0.79517737  0.63400940     0.04300
C1549       C  0.03642822  0.79045724  0.65733760    -0.20400
C1550       C  0.99760006  0.77424350  0.62707810    -0.12700
C1551       C  0.97829869  0.76992391  0.57041054     0.13000
C1552       C  0.99858811  0.78342995  0.54601638    -0.23100
C1553       C  0.10278839  0.80029776  0.67063671    -0.06200
H1554       H  0.05094338  0.79470999  0.70083161     0.14500
C1555       C  0.93690115  0.75145580  0.53566968    -0.16400
H1556       H  0.98250670  0.78809975  0.50253184     0.08800
H1557       H  0.05245197  0.98069596  0.56520617     0.06700
H1558       H  0.02432711  0.94484296  0.07750199     0.07900
H1559       H  0.00430144  0.96642415  0.50463444     0.06900
H1560       H  0.09790315  0.75360362  0.57304824     0.01800
H1561       H  0.14203676  0.78807504  0.60825177     0.02300
H1562       H  0.11877769  0.77921791  0.53718297     0.05800
H1563       H  0.11269150  0.79572839  0.71378196     0.04800
H1564       H  0.11232102  0.83448497  0.66466699    -0.01000
H1565       H  0.11798059  0.77206423  0.66312274     0.00500
H1566       H  0.91523424  0.77559298  0.53570876     0.04200
H1567       H  0.93518632  0.71647453  0.54997372     0.06100
H1568       H  0.92774415  0.74788907  0.49312617     0.07000
C1569       C  0.47963552  0.82803956  0.48348077    -0.22700
C1570       C  0.45676854  0.78957165  0.47688396     0.09300
C1571       C  0.43097434  0.79067706  0.49576268     0.09700
C1572       C  0.42992191  0.83024910  0.52266453    -0.17600
C1573       C  0.45686373  0.86655989  0.53539976    -0.28000
C1574       C  0.48342706  0.86360628  0.51744614     0.18000
C1575       C  0.47301332  0.74669993  0.46918984     0.12000
C1576       C  0.40545764  0.75035392  0.48940187    -0.12300
H1577       H  0.40990432  0.83117928  0.53696919     0.12300
C1578       C  0.51785144  0.89494387  0.53578527    -0.23200
H1579       H  0.50003379  0.82617562  0.46965095     0.07900
C1580       C  0.46592859  0.73825219  0.91722150     0.04300
C1581       C  0.49846523  0.72688232  0.91302324    -0.20400
C1582       C  0.53794355  0.72269162  0.45998855    -0.12700
C1583       C  0.54286782  0.72918532  0.51114299     0.13000
C1584       C  0.50977706  0.73492817  0.51519694    -0.23100
C1585       C  0.42483097  0.74314698  0.86738226    -0.06200
H1586       H  0.49332786  0.72331997  0.87289744     0.14500
C1587       C  0.58247215  0.73550900  0.56117319    -0.16400
H1588       H  0.51427931  0.74155990  0.55463314     0.08800
H1589       H  0.50730217  0.93085305  0.53083589     0.06700
H1590       H  0.53188417  0.89034316  0.51202352     0.07900
H1591       H  0.54183403  0.88629297  0.57791613     0.06900
H1592       H  0.40868932  0.72166748  0.46695972     0.01800
H1593       H  0.37383455  0.76158095  0.46652011     0.02300
H1594       H  0.41374730  0.73721561  0.53002423     0.05800
H1595       H  0.42464138  0.73699771  0.82973454     0.04800
H1596       H  0.41246768  0.77817654  0.86491143    -0.01000
H1597       H  0.40520412  0.71753421  0.86956523     0.00500
H1598       H  0.59655637  0.76634962  0.55619620     0.04200
H1599       H  0.60009155  0.70353742  0.56898814     0.06100
H1600       H  0.58039674  0.74286191  0.59648896     0.07000
C1601       C  0.83357533  0.72050807  0.64536360    -0.22700
C1602       C  0.81191868  0.69508640  0.59781731     0.09300
C1603       C  0.83229465  0.67464779  0.57572412     0.09700
C1604       C  0.87397432  0.67656942  0.60425516    -0.17600
C1605       C  0.89696123  0.69934328  0.65453761    -0.28000
C1606       C  0.87518372  0.72496611  0.67250666     0.18000
C1607       C  0.76788256  0.69112327  0.57104987     0.12000
C1608       C  0.80992914  0.65262824  0.52060336    -0.12300
H1609       H  0.88846449  0.66182820  0.58520946     0.12300
C1610       C  0.89353787  0.76019217  0.71689587    -0.23200
H1611       H  0.81751338  0.73799196  0.66076476     0.07900
C1612       C  0.75012277  0.64890773  0.56945791     0.04300
C1613       C  0.70863403  0.64550286  0.53888118    -0.20400
C1614       C  0.68286206  0.68384355  0.51168993    -0.12700
C1615       C  0.70114540  0.72939152  0.01800652     0.13000
C1616       C  0.74329381  0.72996169  0.54590956    -0.23100
C1617       C  0.77411164  0.60639695  0.60007312    -0.06200
H1618       H  0.69760419  0.61129536  0.53647412     0.14500
C1619       C  0.67784044  0.77396393  0.99446378    -0.16400
H1620       H  0.75688382  0.76493126  0.05009867     0.08800
H1621       H  0.90839848  0.74283144  0.75703834     0.06700
H1622       H  0.87073672  0.78353304  0.71541748     0.07900
H1623       H  0.91400506  0.78262304  0.71238010     0.06900
H1624       H  0.78711067  0.68373623  0.98820084     0.01800
H1625       H  0.79313653  0.62254093  0.52094877     0.02300
H1626       H  0.82812527  0.64614021  0.00422451     0.05800
H1627       H  0.76520505  0.59466899  0.62828291     0.04800
H1628       H  0.80648038  0.61239685  0.62463617    -0.01000
H1629       H  0.76826640  0.57831733  0.57108581     0.00500
H1630       H  0.69754438  0.80326642  0.00060468     0.04200
H1631       H  0.66221339  0.78353428  0.01492826     0.06100
H1632       H  0.65642489  0.77154586  0.95026131     0.07000
loop_ 
_geom_bond_atom_site_label_1 
_geom_bond_atom_site_label_2 
_geom_bond_distance 
_geom_bond_site_symmetry_2 
_ccdc_geom_bond_type 
C1            C2   1.526       .  S
C1            C7   1.545       .  S
C1          C413   1.559       .  S
C1          C798   1.563       .  S
C2            H9   1.086       .  S
C2            C3   1.362       .  D
C3            C4   1.567       .  S
C3          C113   1.519       .  S
C4            C8   1.566       .  S
C4            C6   1.517       .  S
C4           H10   1.107       .  S
C5          C409   1.562       .  S
C5           H11   1.073   1_556  S
C5          C414   1.393       .  D
C6          C413   1.389       .  D
C6          C766   1.502       .  S
C7          H420   1.075       .  S
C7            C8   1.363       .  D
C8          C446   1.528       .  S
H12         C415   1.079   1_554  S
C13          C14   1.547       .  S
C13          C19   1.562       .  S
C13          C17   1.540       .  S
C13         C381   1.560       .  S
C14          H21   1.076       .  S
C14          C15   1.369   1_655  D
C15          C16   1.555       .  S
C15         C128   1.529       .  S
C16          C20   1.559   1_455  S
C16          C18   1.516   1_455  S
C16          H22   1.107       .  S
C17          H23   1.082       .  S
C17          C18   1.368       .  D
C18         C326   1.458   1_655  S
C19          H24   1.084       .  S
C19          C20   1.372       .  D
C20          C51   1.544   1_655  S
O25         Cu33   2.060   1_566  S
O25         C443   1.279       .  A
O26         Cu33   2.059       .  S
O26          C36   1.284       .  A
O27         Cu33   2.088   1_565  S
O27          C37   1.286   1_565  A
O28         Cu33   2.053       .  S
O28          C38   1.287   1_554  A
O29         Cu34   2.062       .  S
O29          C38   1.280       .  A
O30         Cu34   2.036   1_554  S
O30          C37   1.281       .  A
O31         Cu34   2.091   1_554  S
O31          C36   1.286       .  A
O32        Cu442   2.100       .  S
O32          C35   1.290   1_545  A
Cu33        Cu34   2.355   1_554  S
Cu34        O440   2.087       .  S
C35         C907   1.534       .  S
C35         O433   1.280       .  A
C36         C136   1.526       .  S
C37         C871   1.520   1_545  S
C38         C416   1.524       .  S
O39        Cu455   2.017   1_655  S
O39          C49   1.281   1_655  A
O40         Cu47   2.045       .  S
O40          C50   1.277       .  A
O41         Cu47   2.091   1_655  S
O41          C51   1.287   1_655  A
O42         Cu47   2.100       .  S
O42          C52   1.288       .  A
O43         Cu48   2.043       .  S
O43          C52   1.281       .  A
O44         Cu48   2.090       .  S
O44          C51   1.287       .  A
O45         Cu48   2.065       .  S
O45          C50   1.285       .  A
O46         Cu48   2.061       .  S
O46         C457   1.281       .  A
Cu47        O447   2.023   1_455  S
Cu47        Cu48   2.354       .  S
C49         C148   1.507   1_455  S
C49         O454   1.281       .  A
C50         C895   1.512   1_545  S
C52        C1291   1.531       .  S
C53          C54   1.542       .  S
C53          C59   1.540       .  S
C53          C57   1.543       .  S
C53         C294   1.556       .  S
C54         H877   1.086       .  S
C54          C55   1.374       .  D
C55          C56   1.562       .  S
C55         C853   1.523       .  S
C56          C60   1.545       .  S
C56          C58   1.543       .  S
C56          H62   1.099       .  S
C57          H63   1.086       .  S
C57          C58   1.372       .  D
C58         C349   1.487       .  S
C59          H64   1.083       .  S
C59          C60   1.362       .  D
C60         C114   1.498       .  S
H61         C870   1.086   1_545  S
C65          C66   1.551       .  S
C65          C71   1.535       .  S
C65         C477   1.537       .  S
C65         C693   1.552       .  S
C66        H1297   1.084       .  S
C66          C67   1.378       .  D
C67          C68   1.572       .  S
C67        C1276   1.534       .  S
C68          C72   1.560       .  S
C68          C70   1.526       .  S
C68          H74   1.107       .  S
C69         C473   1.536       .  S
C69          H75   1.083       .  S
C69         C478   1.366       .  D
C70         C477   1.365       .  D
C70         C725   1.459       .  S
C71          H76   1.084       .  S
C71          C72   1.355       .  D
C72         C127   1.524       .  S
H73        C1290   1.082       .  S
C77          C78   1.560       .  S
C77          C83   1.546       .  S
C77          C81   1.530       .  S
C77         C253   1.560       .  S
C78          H85   1.084       .  S
C78          C79   1.379       .  D
C79          C80   1.555       .  S
C79         C866   1.519       .  S
C80          C84   1.563       .  S
C80          C82   1.532       .  S
C80          H86   1.111       .  S
C81          H87   1.086       .  S
C81          C82   1.355       .  D
C82         C230   1.456       .  S
C83          H88   1.062       .  S
C83          C84   1.364       .  D
C84         C125   1.525       .  S
C89          C90   1.557       .  S
C89          C95   1.547       .  S
C89          C93   1.526       .  S
C89         C262   1.556       .  S
C90          H97   1.082       .  S
C90          C91   1.371       .  D
C91          C92   1.558       .  S
C91         C851   1.530       .  S
C92          C96   1.566       .  S
C92          C94   1.526       .  S
C92          H98   1.111       .  S
C93          H99   1.080       .  S
C93          C94   1.352       .  D
C94         C198   1.437       .  S
C95         H100   1.077       .  S
C95          C96   1.371       .  D
C96         C112   1.539       .  S
O101       Cu109   2.079       .  S
O101        C111   1.286       .  A
O102       Cu109   2.099       .  S
O102        C112   1.286       .  A
O103       Cu109   2.056       .  S
O103        C113   1.287       .  A
O104       Cu109   2.048       .  S
O104        C114   1.280       .  A
O105       Cu110   2.036       .  S
O105        C114   1.281       .  A
O106       Cu110   2.058       .  S
O106        C113   1.278       .  A
O107       Cu110   2.076       .  S
O107        C112   1.288       .  A
O108       Cu110   2.089       .  S
O108        C111   1.286       .  A
Cu109      Cu110   2.355       .  S
C111        C131   1.543       .  S
O115       Cu123   2.077       .  S
O115        C125   1.282       .  A
O116       Cu123   2.024   1_655  S
O116        C126   1.283   1_655  A
O117       Cu123   2.076       .  S
O117        C127   1.282       .  A
O118       Cu123   2.086       .  S
O118        C128   1.291       .  A
O119       Cu124   2.065       .  S
O119        C128   1.280       .  A
O120       Cu124   2.060       .  S
O120        C127   1.287       .  A
O121       Cu124   2.057       .  S
O121        C126   1.279       .  A
O122       Cu124   2.070       .  S
O122        C125   1.288       .  A
Cu123      Cu124   2.356       .  S
C126        C143   1.514       .  S
C129        C130   1.551       .  S
C129        C135   1.528       .  S
C129        C133   1.549       .  S
C129        C166   1.559       .  S
C130        H137   1.085       .  S
C130        C131   1.381       .  D
C131        C132   1.570       .  S
C132        C136   1.558       .  S
C132        C134   1.544       .  S
C132        H138   1.102       .  S
C133        H139   1.065       .  S
C133        C134   1.377       .  D
C134        C189   1.495       .  S
C135        H140   1.087       .  S
C135        C136   1.357       .  D
C141        C142   1.517       .  S
C141        C147   1.519       .  S
C141        C145   1.567       .  S
C141        C157   1.547       .  S
C142        H149   1.086       .  S
C142        C143   1.359   1_655  D
C143        C144   1.568       .  S
C144        C148   1.553   1_455  S
C144        C146   1.536       .  S
C144        H150   1.085       .  S
C145        H151   1.079       .  S
C145        C146   1.400   1_655  D
C146        C221   1.520       .  S
C147        H152   1.087       .  S
C147        C148   1.357       .  D
C153        C154   1.390       .  A
C153        C158   1.399       .  A
C153        H163   1.084       .  S
C154        C155   1.410       .  A
C154        C159   1.486       .  S
C155        C160   1.505       .  S
C155        C156   1.412       .  A
C156        C157   1.414       .  A
C156        H161   1.078       .  S
C157        C158   1.435       .  A
C158        C162   1.513       .  S
C159        C164   1.406       .  A
C159        C168   1.394       .  A
C160        H176   1.110       .  S
C160        H177   1.109       .  S
C160        H178   1.111       .  S
C162        H173   1.111       .  S
C162        H174   1.108       .  S
C162        H175   1.100       .  S
C164        C169   1.508       .  S
C164        C165   1.407       .  A
C165        C166   1.420       .  A
C165        H170   1.076       .  S
C166        C167   1.432       .  A
C167        C171   1.502       .  S
C167        C168   1.407       .  A
C168        H172   1.084       .  S
C169        H179   1.111       .  S
C169        H180   1.111       .  S
C169        H181   1.109       .  S
C171        H182   1.105       .  S
C171        H183   1.099       .  S
C171        H184   1.111       .  S
C185        C186   1.395       .  A
C185        C190   1.397       .  A
C185        H195   1.085       .  S
C186        C187   1.392       .  A
C186        C191   1.444       .  S
C187        C192   1.514       .  S
C187        C188   1.378       .  A
C188        C189   1.413       .  A
C188        H193   1.059       .  S
C189        C190   1.427       .  A
C190        C194   1.507       .  S
C191        C196   1.410       .  A
C191        C200   1.394       .  A
C192        H208   1.109       .  S
C192        H209   1.111       .  S
C192        H210   1.110       .  S
C194        H205   1.111       .  S
C194        H206   1.109       .  S
C194        H207   1.110       .  S
C196        C201   1.512       .  S
C196       C1013   1.381   1_545  A
C197        C198   1.391       .  A
C197       C1012   1.379       .  A
C197        H202   1.085       .  S
C198       C1015   1.415       .  A
C199        C203   1.509       .  S
C199        C200   1.388       .  A
C199       C1014   1.415   1_545  A
C200        H204   1.084       .  S
C201        H212   1.107       .  S
C201        H213   1.111       .  S
C201       H1027   1.103   1_545  S
C203        H214   1.108       .  S
C203        H215   1.103       .  S
C203        H216   1.110       .  S
H211       C1017   1.103       .  S
C217        C218   1.377       .  A
C217        C222   1.396       .  A
C217        H227   1.086       .  S
C218        C219   1.407       .  A
C218        C223   1.459       .  S
C219        C224   1.508       .  S
C219        C220   1.396       .  A
C220        C221   1.411       .  A
C220        H225   1.080       .  S
C221        C222   1.441       .  A
C222        C226   1.494       .  S
C223        C228   1.397       .  A
C223        C232   1.395       .  A
C224        H240   1.109       .  S
C224        H241   1.110       .  S
C224        H242   1.110       .  S
C226        H237   1.100       .  S
C226        H238   1.112       .  S
C226        H239   1.109       .  S
C228        C233   1.500       .  S
C228        C229   1.387       .  A
C229       C1046   1.398       .  A
C229        H234   1.070       .  S
C230       C1045   1.397       .  A
C230       C1047   1.404       .  A
C231       C1051   1.503   1_545  S
C231        C232   1.400       .  A
C231       C1046   1.404       .  A
C232        H236   1.068       .  S
C233        H243   1.104       .  S
C233        H244   1.110       .  S
C233        H245   1.109       .  S
C235       C1047   1.504       .  S
C235        H246   1.103       .  S
C235        H247   1.109       .  S
C235        H248   1.111       .  S
C249        C250   1.396       .  A
C249        C254   1.409       .  A
C249        H259   1.086       .  S
C250        C251   1.414       .  A
C250        C255   1.506       .  S
C251        C256   1.510       .  S
C251        C252   1.413       .  A
C252        C253   1.417       .  A
C252        H257   1.079       .  S
C253        C254   1.439       .  A
C254        C258   1.511       .  S
C255        C260   1.417       .  A
C255        C264   1.401       .  A
C256        H272   1.108       .  S
C256       H1089   1.111       .  S
C256       H1090   1.111       .  S
C258        H269   1.112       .  S
C258        H270   1.106       .  S
C258        H271   1.109       .  S
C260        C265   1.509       .  S
C260        C261   1.409       .  A
C261        C262   1.412       .  A
C261        H266   1.075       .  S
C262        C263   1.432       .  A
C263        C267   1.513       .  S
C263        C264   1.413       .  A
C264        H268   1.083       .  S
C265        H276   1.108       .  S
C265       H1091   1.108       .  S
C265       H1093   1.110       .  S
C267        H278   1.107       .  S
C267        H279   1.105       .  S
C267        H280   1.111       .  S
H273       C1072   1.110       .  S
H274       C1072   1.110       .  S
H275       C1081   1.110       .  S
H277       C1081   1.110       .  S
C281        C282   1.395       .  A
C281        C286   1.406       .  A
C281        H291   1.084       .  S
C282        C283   1.407       .  A
C282        C287   1.490       .  S
C283       C1512   1.505       .  S
C283        C692   1.409       .  A
C284        C691   1.410       .  A
C284        C693   1.416       .  A
C284        H289   1.080       .  S
C285        C473   1.553       .  S
C285        C286   1.437       .  A
C285        C692   1.416       .  A
C286        C290   1.515       .  S
C287        C292   1.404       .  A
C287        C296   1.399       .  A
C288       C1507   1.505       .  S
C288        H306   1.111       .  S
C288       H1120   1.110       .  S
C288        H713   1.110       .  S
C290        H301   1.111       .  S
C290        H302   1.105       .  S
C290        H303   1.106       .  S
C292       C1113   1.504       .  S
C292        C293   1.405       .  A
C293        C294   1.417       .  A
C293        H298   1.081       .  S
C294        C295   1.429       .  A
C295        C299   1.506   1_554  S
C295        C296   1.411       .  A
C296        H300   1.085   1_554  S
C297       C1108   1.503   1_545  S
C297        H307   1.105       .  S
C297        H309   1.109       .  S
C297       H1124   1.110   1_545  S
C299        H310   1.106       .  S
C299        H311   1.104   1_556  S
C299        H312   1.110       .  S
H304       C1104   1.110       .  S
H305        C696   1.109       .  S
H308       C1113   1.107       .  S
C313        C314   1.395       .  A
C313        C318   1.372       .  A
C313        H323   1.087       .  S
C314        C315   1.409       .  A
C314        C319   1.453       .  S
C315        C320   1.500       .  S
C315        C316   1.392       .  A
C316        C317   1.403       .  A
C316        H729   1.085       .  S
C317        C478   1.458       .  S
C317        C318   1.405       .  A
C318        C322   1.492       .  S
C319        C324   1.406       .  A
C319        C328   1.400       .  A
C320        H336   1.109       .  S
C320        H337   1.110       .  S
C320        H338   1.103       .  S
H321        C724   1.082       .  S
C322        H333   1.097       .  S
C322        H335   1.110       .  S
C322        H742   1.111       .  S
C324        C329   1.506       .  S
C324        C325   1.385       .  A
C325        C326   1.402       .  A
C325        H330   1.085       .  S
C326        C327   1.408   1_455  A
C327        C331   1.506       .  S
C327        C328   1.389   1_655  A
C328        H332   1.079   1_455  S
C329        H339   1.106       .  S
C329        H340   1.110       .  S
C329        H341   1.105       .  S
C331        H342   1.108       .  S
C331        H343   1.110       .  S
C331        H344   1.098   1_554  S
H334        C730   1.111       .  S
C345        C346   1.395       .  A
C345        C350   1.386   1_556  A
C345        H355   1.086       .  S
C346        C347   1.407   1_556  A
C346        C351   1.469       .  S
C347        C352   1.503   1_554  S
C347        C348   1.406       .  A
C348        C349   1.412       .  A
C348        H353   1.083       .  S
C349        C350   1.413       .  A
C350        C354   1.496       .  S
C351        C360   1.395   1_556  A
C351        C764   1.402       .  A
C352        H368   1.110       .  S
C352        H369   1.110       .  S
C352        H370   1.110   1_556  S
C354        H365   1.099       .  S
C354        H366   1.108       .  S
C354        H367   1.104       .  S
C356        C361   1.504       .  S
C356        C357   1.405       .  A
C356        C759   1.401       .  A
C357        C766   1.416       .  A
C357        H362   1.083       .  S
C358        C414   1.508       .  S
C358        C359   1.413   1_556  A
C358        C765   1.417       .  A
C359        C363   1.483       .  S
C359        C360   1.397       .  A
C360        H364   1.086       .  S
C361        H371   1.111       .  S
C361        H372   1.109       .  S
C361        H373   1.110       .  S
C363        H374   1.109       .  S
C363        H375   1.103       .  S
C363        H376   1.102       .  S
C377        C378   1.400       .  A
C377        C382   1.415       .  A
C377        H387   1.085       .  S
C378        C379   1.410       .  A
C378        C383   1.500       .  S
C379        C384   1.509       .  S
C379        C380   1.407       .  A
C380        C381   1.416       .  A
C380        H385   1.082       .  S
C381        C382   1.436       .  A
C382        C386   1.507       .  S
C383        C388   1.408       .  A
C383        C392   1.403       .  A
C384        H401   1.107       .  S
C384        H808   1.111   1_554  S
C384        H810   1.111       .  S
C386        H397   1.106       .  S
C386        H398   1.111       .  S
C386        H399   1.109       .  S
C388        C393   1.510       .  S
C388        C389   1.404       .  A
C389        C390   1.421       .  A
C389        H394   1.074       .  S
C390        C409   1.568   1_554  S
C390        C799   1.434       .  A
C391        C395   1.513       .  S
C391        C798   1.434       .  A
C391        C800   1.414       .  A
C392        C799   1.417       .  A
C392        H804   1.084       .  S
C393        H403   1.110       .  S
C393        H404   1.108       .  S
C393        H405   1.110       .  S
C395        H406   1.111       .  S
C395        H407   1.106       .  S
C395        H408   1.103       .  S
H396        C800   1.085       .  S
H400        C792   1.111       .  S
H402        C792   1.111       .  S
C409        C410   1.525       .  S
C409        C415   1.542       .  S
C410        H417   1.087       .  S
C410        C411   1.362       .  D
C411        C412   1.566       .  S
C411        C521   1.515       .  S
C412        C416   1.562       .  S
C412        C414   1.522       .  S
C412        H418   1.106       .  S
C413        H419   1.074       .  S
C415        C416   1.362       .  D
C421        C422   1.549       .  S
C421        C427   1.561       .  S
C421        C425   1.540       .  S
C421        C789   1.561       .  S
C422        H429   1.069       .  S
C422        C423   1.368   1_655  D
C423        C424   1.551       .  S
C423        C536   1.527       .  S
C424        C428   1.553   1_455  S
C424        C426   1.518   1_455  S
C424        H430   1.108       .  S
C425        H431   1.083       .  S
C425        C426   1.367       .  D
C426        C734   1.457       .  S
C427        H432   1.084       .  S
C427        C428   1.372       .  D
C428        C459   1.538   1_655  S
O433       Cu441   2.067   1_565  S
O434       Cu441   2.063       .  S
O434        C444   1.284       .  A
O435       Cu441   2.093   1_565  S
O435        C445   1.288   1_565  A
O436       Cu441   2.062       .  S
O436        C446   1.288       .  A
O437       Cu442   2.066       .  S
O437        C446   1.281       .  A
O438       Cu442   2.037       .  S
O438        C445   1.280       .  A
O439       Cu442   2.102       .  S
O439        C444   1.288       .  A
O440        C443   1.289   1_545  A
Cu441      Cu442   2.353       .  S
C443       C1315   1.526       .  S
C444        C544   1.531       .  S
C445       C1279   1.521   1_545  S
O447        C457   1.282   1_655  A
O448       Cu455   2.049       .  S
O448        C458   1.278       .  A
O449       Cu455   2.078   1_655  S
O449        C459   1.286   1_655  A
O450       Cu455   2.093       .  S
O450        C460   1.286       .  A
O451       Cu456   2.054       .  S
O451        C460   1.284       .  A
O452       Cu456   2.095       .  S
O452        C459   1.288       .  A
O453       Cu456   2.068       .  S
O453        C458   1.286       .  A
O454       Cu456   2.061       .  S
Cu455      Cu456   2.355       .  S
C457        C556   1.509   1_454  S
C458       C1303   1.513   1_545  S
C460        C883   1.533       .  S
C461        C462   1.541       .  S
C461        C467   1.540       .  S
C461        C465   1.543       .  S
C461        C702   1.554       .  S
C462       H1285   1.086       .  S
C462        C463   1.373       .  D
C463        C464   1.561       .  S
C463       C1261   1.521       .  S
C464        C468   1.543       .  S
C464        C466   1.543       .  S
C464        H470   1.098       .  S
C465        H471   1.085       .  S
C465        C466   1.373       .  D
C466        C757   1.488       .  S
C467        H472   1.083       .  S
C467        C468   1.359       .  D
C468        C522   1.493       .  S
H469       C1278   1.087   1_545  S
C473        C474   1.552       .  S
C473        C479   1.535   1_554  S
C474        H889   1.082       .  S
C474        C475   1.378       .  D
C475        C476   1.563   1_554  S
C475        C868   1.527       .  S
C476        C480   1.549       .  S
C476        C478   1.526   1_556  S
C476        H482   1.107       .  S
C477        H483   1.081       .  S
C479        H484   1.085       .  S
C479        C480   1.358       .  D
C480        C535   1.511       .  S
H481        C882   1.082       .  S
C485        C486   1.559       .  S
C485        C491   1.542       .  S
C485        C489   1.533       .  S
C485        C661   1.559       .  S
C486        H493   1.084       .  S
C486        C487   1.375       .  D
C487        C488   1.555       .  S
C487       C1274   1.517       .  S
C488        C492   1.561       .  S
C488        C490   1.537       .  S
C488        H494   1.111       .  S
C489        H495   1.086       .  S
C489        C490   1.357       .  D
C490        C638   1.462       .  S
C491        H496   1.063       .  S
C491        C492   1.362       .  D
C492        C533   1.522       .  S
C497        C498   1.557       .  S
C497        C503   1.543       .  S
C497        C501   1.529       .  S
C497        C670   1.550       .  S
C498        H505   1.081       .  S
C498        C499   1.368       .  D
C499        C500   1.557       .  S
C499       C1259   1.528       .  S
C500        C504   1.563       .  S
C500        C502   1.526       .  S
C500        H506   1.111       .  S
C501        H507   1.081       .  S
C501        C502   1.353       .  D
C502        C606   1.438       .  S
C503        H508   1.077       .  S
C503        C504   1.371       .  D
C504        C520   1.528       .  S
O509       Cu517   2.066       .  S
O509        C519   1.285       .  A
O510       Cu517   2.085       .  S
O510        C520   1.284       .  A
O511       Cu517   2.048       .  S
O511        C521   1.286       .  A
O512       Cu517   2.039       .  S
O512        C522   1.278       .  A
O513       Cu518   2.031       .  S
O513        C522   1.281       .  A
O514       Cu518   2.057       .  S
O514        C521   1.279       .  A
O515       Cu518   2.064       .  S
O515        C520   1.286       .  A
O516       Cu518   2.085       .  S
O516        C519   1.285       .  A
Cu517      Cu518   2.357       .  S
C519        C539   1.539       .  S
O523       Cu531   2.079       .  S
O523        C533   1.282       .  A
O524       Cu531   2.034   1_655  S
O524        C534   1.283   1_655  A
O525       Cu531   2.068       .  S
O525        C535   1.282       .  A
O526       Cu531   2.079       .  S
O526        C536   1.289       .  A
O527       Cu532   2.066       .  S
O527        C536   1.279       .  A
O528       Cu532   2.032       .  S
O528        C535   1.282       .  A
O529       Cu532   2.067       .  S
O529        C534   1.278       .  A
O530       Cu532   2.057       .  S
O530        C533   1.286       .  A
Cu531      Cu532   2.353       .  S
C534        C551   1.521       .  S
C537        C538   1.547       .  S
C537        C543   1.533       .  S
C537        C541   1.549       .  S
C537        C574   1.559       .  S
C538        H545   1.086       .  S
C538        C539   1.378       .  D
C539        C540   1.569       .  S
C540        C544   1.557       .  S
C540        C542   1.543       .  S
C540        H546   1.103       .  S
C541        H547   1.074       .  S
C541        C542   1.375       .  D
C542        C597   1.491       .  S
C543        H548   1.088       .  S
C543        C544   1.362       .  D
C549        C550   1.523       .  S
C549        C555   1.520       .  S
C549        C553   1.566       .  S
C549        C565   1.548       .  S
C550        H557   1.089       .  S
C550        C551   1.363   1_655  D
C551        C552   1.576       .  S
C552        C556   1.558   1_455  S
C552        C554   1.530       .  S
C552        H558   1.100       .  S
C553        H559   1.080       .  S
C553        C554   1.386   1_655  D
C554        C629   1.497       .  S
C555        H560   1.087       .  S
C555        C556   1.361       .  D
C561        C562   1.389       .  A
C561        C566   1.401       .  A
C561        H571   1.085       .  S
C562        C563   1.408       .  A
C562        C567   1.485       .  S
C563        C568   1.505       .  S
C563        C564   1.410       .  A
C564        C565   1.415       .  A
C564        H569   1.077       .  S
C565        C566   1.438       .  A
C566        C570   1.511       .  S
C567        C572   1.406       .  A
C567        C576   1.393       .  A
C568        H584   1.110       .  S
C568        H585   1.110       .  S
C568        H586   1.111       .  S
C570        H581   1.111       .  S
C570        H582   1.110       .  S
C570        H583   1.096       .  S
C572        C577   1.509       .  S
C572        C573   1.405       .  A
C573        C574   1.418       .  A
C573        H578   1.077       .  S
C574        C575   1.433       .  A
C575        C579   1.502       .  S
C575        C576   1.408       .  A
C576        H580   1.084       .  S
C577        H587   1.111       .  S
C577        H588   1.111       .  S
C577        H589   1.110       .  S
C579        H590   1.106       .  S
C579        H591   1.099       .  S
C579        H592   1.111       .  S
C593        C594   1.396       .  A
C593        C598   1.397       .  A
C593        H603   1.086       .  S
C594        C595   1.392       .  A
C594        C599   1.443       .  S
C595        C600   1.514       .  S
C595        C596   1.376       .  A
C596        C597   1.411       .  A
C596        H601   1.060       .  S
C597        C598   1.425       .  A
C598        C602   1.508       .  S
C599        C604   1.411       .  A
C599        C608   1.394       .  A
C600        H616   1.109       .  S
C600        H617   1.111       .  S
C600        H618   1.111       .  S
C602        H613   1.111       .  S
C602        H614   1.109       .  S
C602        H615   1.110       .  S
C604        C609   1.512       .  S
C604       C1421   1.381   1_545  A
C605       C1420   1.382       .  A
C605        C606   1.394       .  A
C605        H610   1.083       .  S
C606       C1423   1.414       .  A
C607        C611   1.508       .  S
C607       C1422   1.415   1_545  A
C607        C608   1.388       .  A
C608        H612   1.084       .  S
C609       H1435   1.104   1_545  S
C609        H620   1.107       .  S
C609        H621   1.110       .  S
C611        H622   1.108       .  S
C611        H623   1.102       .  S
C611        H624   1.110       .  S
H619       C1425   1.103       .  S
C625        C626   1.380       .  A
C625        C630   1.388       .  A
C625        H635   1.085       .  S
C626        C627   1.416       .  A
C626        C631   1.460       .  S
C627        C632   1.504       .  S
C627        C628   1.399       .  A
C628        C629   1.403       .  A
C628        H633   1.083   1_455  S
C629        C630   1.424       .  A
C630        C634   1.488       .  S
C631        C636   1.404       .  A
C631        C640   1.395       .  A
C632        H648   1.109       .  S
C632        H649   1.110       .  S
C632        H650   1.110       .  S
C634        H645   1.096       .  S
C634        H646   1.112       .  S
C634        H647   1.097       .  S
C636        C641   1.503       .  S
C636        C637   1.382       .  A
C637       C1454   1.397       .  A
C637        H642   1.077       .  S
C638       C1453   1.397       .  A
C638       C1455   1.409       .  A
C639       C1459   1.504   1_545  S
C639       C1454   1.409       .  A
C639        C640   1.399       .  A
C640        H644   1.076       .  S
C641        H651   1.109       .  S
C641        H652   1.107       .  S
C641        H653   1.108       .  S
C643       C1455   1.504       .  S
C643        H654   1.106       .  S
C643        H655   1.109       .  S
C643        H656   1.110       .  S
C657        C658   1.396       .  A
C657        C662   1.407       .  A
C657        H667   1.085       .  S
C658        C659   1.414       .  A
C658        C663   1.503       .  S
C659        C664   1.510       .  S
C659        C660   1.411       .  A
C660        C661   1.417       .  A
C660        H665   1.077       .  S
C661        C662   1.438       .  A
C662        C666   1.511       .  S
C663        C668   1.417       .  A
C663        C672   1.402       .  A
C664        H680   1.108       .  S
C664       H1497   1.110       .  S
C664       H1498   1.111       .  S
C666        H677   1.111       .  S
C666        H678   1.107       .  S
C666        H679   1.109       .  S
C668        C673   1.508       .  S
C668        C669   1.404       .  A
C669        C670   1.408       .  A
C669        H674   1.074       .  S
C670        C671   1.431       .  A
C671        C675   1.513       .  S
C671        C672   1.412       .  A
C672        H676   1.083       .  S
C673       H1499   1.109       .  S
C673        H684   1.106       .  S
C673       H1501   1.111       .  S
C675        H686   1.107       .  S
C675        H687   1.106       .  S
C675        H688   1.111       .  S
H681       C1480   1.110       .  S
H682       C1480   1.111       .  S
H683       C1489   1.109       .  S
H685       C1489   1.110       .  S
C689        C690   1.394       .  A
C689        C694   1.405       .  A
C689        H699   1.086       .  S
C690        C691   1.407       .  A
C690        C695   1.489       .  S
C691       C1104   1.505       .  S
C692        H697   1.079       .  S
C693        C694   1.437       .  A
C694        C698   1.515       .  S
C695        C700   1.406       .  A
C695        C704   1.402       .  A
C696       C1099   1.506       .  S
C696       H1528   1.110       .  S
C696        H714   1.110       .  S
C698        H709   1.111       .  S
C698        H710   1.105       .  S
C698        H711   1.106       .  S
C700       C1521   1.508       .  S
C700        C701   1.402       .  A
C701        C702   1.416       .  A
C701        H706   1.079       .  S
C702        C703   1.429       .  A
C703        C707   1.509       .  S
C703        C704   1.413       .  A
C704        H708   1.084       .  S
C705       C1516   1.507       .  S
C705        H715   1.110   1_565  S
C705       H1532   1.109       .  S
C705        H717   1.108   1_565  S
C707        H718   1.108       .  S
C707        H719   1.104       .  S
C707        H720   1.110       .  S
H712       C1512   1.110       .  S
H716       C1521   1.108       .  S
C721        C722   1.395       .  A
C721        C726   1.372       .  A
C721        H731   1.086       .  S
C722        C723   1.410       .  A
C722        C727   1.453       .  S
C723        C728   1.499       .  S
C723        C724   1.391       .  A
C724        C725   1.402       .  A
C725        C726   1.404       .  A
C726        C730   1.490       .  S
C727        C732   1.406       .  A
C727        C736   1.404       .  A
C728        H744   1.109       .  S
C728        H745   1.110       .  S
C728        H746   1.104       .  S
C730        H741   1.098       .  S
C730        H743   1.110       .  S
C732        C737   1.506       .  S
C732        C733   1.383       .  A
C733        C734   1.399   1_455  A
C733        H738   1.085       .  S
C734        C735   1.408       .  A
C735        C739   1.506       .  S
C735        C736   1.392   1_655  A
C736        H740   1.082   1_455  S
C737        H747   1.106       .  S
C737        H748   1.110       .  S
C737        H749   1.104       .  S
C739        H750   1.108       .  S
C739        H751   1.110       .  S
C739        H752   1.097       .  S
C753        C754   1.396       .  A
C753        C758   1.387       .  A
C753        H763   1.087       .  S
C754        C755   1.406       .  A
C754        C759   1.467       .  S
C755        C760   1.503       .  S
C755        C756   1.405       .  A
C756        C757   1.412       .  A
C756        H761   1.083       .  S
C757        C758   1.412       .  A
C758        C762   1.497       .  S
C759        C768   1.394       .  A
C760        H776   1.110       .  S
C760        H777   1.110       .  S
C760        H778   1.110       .  S
C762        H773   1.098       .  S
C762        H774   1.109       .  S
C762        H775   1.105       .  S
C764        C769   1.505       .  S
C764        C765   1.405       .  A
C765        H770   1.083       .  S
C766        C767   1.411       .  A
C767        C771   1.482       .  S
C767        C768   1.394       .  A
C768        H772   1.086       .  S
C769        H779   1.111       .  S
C769        H780   1.109       .  S
C769        H781   1.110       .  S
C771        H782   1.109       .  S
C771        H783   1.105       .  S
C771        H784   1.101       .  S
C785        C786   1.397       .  A
C785        C790   1.413       .  A
C785        H795   1.085       .  S
C786        C787   1.408       .  A
C786        C791   1.495       .  S
C787        C792   1.509       .  S
C787        C788   1.407       .  A
C788        C789   1.418       .  A
C788        H793   1.082       .  S
C789        C790   1.438       .  A
C790        C794   1.507       .  S
C791        C796   1.408       .  A
C791        C800   1.400       .  A
C792        H809   1.108       .  S
C794        H805   1.106       .  S
C794        H806   1.111       .  S
C794        H807   1.110       .  S
C796        C801   1.510       .  S
C796        C797   1.404       .  A
C797        C798   1.420       .  A
C797        H802   1.069       .  S
C799        C803   1.512   1_554  S
C801        H811   1.110       .  S
C801        H812   1.108       .  S
C801        H813   1.110       .  S
C803        H814   1.111   1_556  S
C803        H815   1.105   1_556  S
C803        H816   1.105       .  S
C817        C818   1.526       .  S
C817        C823   1.544       .  S
C817       C1229   1.561       .  S
C817       C1614   1.567       .  S
C818        H825   1.087       .  S
C818        C819   1.362       .  D
C819        C820   1.567       .  S
C819        C929   1.519       .  S
C820        C824   1.565       .  S
C820        C822   1.519       .  S
C820        H826   1.106       .  S
C821       C1225   1.560       .  S
C821        H827   1.073   1_556  S
C821       C1230   1.392       .  D
C822       C1229   1.392       .  D
C822       C1582   1.506       .  S
C823       H1236   1.080       .  S
C823        C824   1.362       .  D
C824       C1262   1.528       .  S
H828       C1231   1.078   1_554  S
C829        C830   1.547       .  S
C829        C835   1.563       .  S
C829        C833   1.542       .  S
C829       C1197   1.563       .  S
C830        H837   1.080       .  S
C830        C831   1.366   1_655  D
C831        C832   1.554       .  S
C831        C944   1.530       .  S
C832        C836   1.560   1_455  S
C832        C834   1.516   1_455  S
C832        H838   1.108       .  S
C833        H839   1.084       .  S
C833        C834   1.369       .  D
C834       C1142   1.457   1_655  S
C835        H840   1.085       .  S
C835        C836   1.372       .  D
C836        C867   1.545   1_655  S
O841       Cu849   2.064   1_556  S
O841       C1259   1.279       .  A
O842       Cu849   2.057       .  S
O842        C852   1.284       .  A
O843       Cu849   2.093       .  S
O843        C853   1.288       .  A
O844       Cu849   2.062       .  S
O844        C854   1.288   1_554  A
O845       Cu850   2.065       .  S
O845        C854   1.281       .  A
O846       Cu850   2.042   1_554  S
O846        C853   1.281       .  A
O847       Cu850   2.092   1_554  S
O847        C852   1.286       .  A
O848      Cu1258   2.093       .  S
O848        C851   1.289       .  A
Cu849      Cu850   2.355   1_554  S
Cu850      O1256   2.091       .  S
C851       O1249   1.279       .  A
C852        C952   1.526       .  S
C854       C1232   1.527       .  S
O855      Cu1271   2.022   1_655  S
O855        C865   1.282   1_655  A
O856       Cu863   2.051       .  S
O856        C866   1.278       .  A
O857       Cu863   2.093   1_655  S
O857        C867   1.288   1_655  A
O858       Cu863   2.094       .  S
O858        C868   1.288       .  A
O859       Cu864   2.038       .  S
O859        C868   1.281       .  A
O860       Cu864   2.090       .  S
O860        C867   1.287       .  A
O861       Cu864   2.076       .  S
O861        C866   1.287       .  A
O862       Cu864   2.069       .  S
O862       C1273   1.282       .  A
Cu863      O1263   2.026   1_455  S
Cu863      Cu864   2.353       .  S
C865        C964   1.511       .  S
C865       O1270   1.281       .  A
C869        C870   1.537       .  S
C869        C875   1.540       .  S
C869        C873   1.547       .  S
C869       C1110   1.553       .  S
C870        C871   1.371       .  D
C871        C872   1.563       .  S
C872        C876   1.547       .  S
C872        C874   1.544       .  S
C872        H878   1.097       .  S
C873        H879   1.085       .  S
C873        C874   1.374       .  D
C874       C1165   1.490       .  S
C875        H880   1.084       .  S
C875        C876   1.362       .  D
C876        C930   1.499       .  S
C881        C882   1.550   1_565  S
C881        C887   1.535       .  S
C881       C1293   1.539       .  S
C881       C1509   1.554       .  S
C882        C883   1.378       .  D
C883        C884   1.570   1_545  S
C884        C888   1.559       .  S
C884        C886   1.525       .  S
C884        H890   1.107       .  S
C885       C1289   1.537       .  S
C885        H891   1.079       .  S
C885       C1294   1.365       .  D
C886       C1293   1.366       .  D
C886       C1541   1.460       .  S
C887        H892   1.083       .  S
C887        C888   1.357       .  D
C888        C943   1.522       .  S
C893        C894   1.557       .  S
C893        C899   1.543       .  S
C893        C897   1.531       .  S
C893       C1069   1.556       .  S
C894        H901   1.083       .  S
C894        C895   1.377       .  D
C895        C896   1.553       .  S
C896        C900   1.563       .  S
C896        C898   1.534       .  S
C896        H902   1.111       .  S
C897        H903   1.086       .  S
C897        C898   1.354       .  D
C898       C1046   1.460   1_565  S
C899        H904   1.066       .  S
C899        C900   1.363       .  D
C900        C941   1.521       .  S
C905        C906   1.560       .  S
C905        C911   1.546       .  S
C905        C909   1.529       .  S
C905       C1078   1.555       .  S
C906        H913   1.082       .  S
C906        C907   1.370       .  D
C907        C908   1.559       .  S
C908        C912   1.567       .  S
C908        C910   1.524       .  S
C908        H914   1.111       .  S
C909        H915   1.082       .  S
C909        C910   1.355       .  D
C910       C1014   1.438       .  S
C911        H916   1.079       .  S
C911        C912   1.371       .  D
C912        C928   1.538       .  S
O917       Cu925   2.076       .  S
O917        C927   1.286       .  A
O918       Cu925   2.096       .  S
O918        C928   1.286       .  A
O919       Cu925   2.051       .  S
O919        C929   1.286       .  A
O920       Cu925   2.047       .  S
O920        C930   1.279       .  A
O921       Cu926   2.041       .  S
O921        C930   1.282       .  A
O922       Cu926   2.061       .  S
O922        C929   1.279       .  A
O923       Cu926   2.075       .  S
O923        C928   1.288       .  A
O924       Cu926   2.092       .  S
O924        C927   1.286       .  A
Cu925      Cu926   2.355       .  S
C927        C947   1.544       .  S
O931       Cu939   2.077       .  S
O931        C941   1.282       .  A
O932       Cu939   2.032   1_655  S
O932        C942   1.283   1_655  A
O933       Cu939   2.073       .  S
O933        C943   1.281       .  A
O934       Cu939   2.083       .  S
O934        C944   1.291       .  A
O935       Cu940   2.070       .  S
O935        C944   1.280       .  A
O936       Cu940   2.058       .  S
O936        C943   1.287       .  A
O937       Cu940   2.053       .  S
O937        C942   1.277       .  A
O938       Cu940   2.061       .  S
O938        C941   1.287       .  A
Cu939      Cu940   2.355       .  S
C942        C959   1.517       .  S
C945        C946   1.551       .  S
C945        C951   1.529       .  S
C945        C949   1.547       .  S
C945        C982   1.559       .  S
C946        H953   1.086       .  S
C946        C947   1.380       .  D
C947        C948   1.571       .  S
C948        C952   1.557       .  S
C948        C950   1.542       .  S
C948        H954   1.104       .  S
C949        H955   1.070       .  S
C949        C950   1.377       .  D
C950       C1005   1.490       .  S
C951        H956   1.087       .  S
C951        C952   1.359       .  D
C957        C958   1.518       .  S
C957        C963   1.520       .  S
C957        C961   1.569       .  S
C957        C973   1.552       .  S
C958        H965   1.085       .  S
C958        C959   1.360   1_655  D
C959        C960   1.572       .  S
C960        C964   1.556       .  S
C960        C962   1.530       .  S
C960        H966   1.081       .  S
C961        H967   1.079       .  S
C961        C962   1.398   1_655  D
C962       C1037   1.517       .  S
C963        H968   1.088       .  S
C963        C964   1.358   1_655  D
C969        C970   1.393       .  A
C969        C974   1.403       .  A
C969        H979   1.085       .  S
C970        C971   1.411       .  A
C970        C975   1.492       .  S
C971        C976   1.505       .  S
C971        C972   1.412       .  A
C972        C973   1.413       .  A
C972        H977   1.080       .  S
C973        C974   1.435       .  A
C974        C978   1.512       .  S
C975        C980   1.408       .  A
C975        C984   1.397       .  A
C976        H992   1.110       .  S
C976        H993   1.108       .  S
C976        H994   1.111       .  S
C978        H989   1.111       .  S
C978        H990   1.108       .  S
C978        H991   1.098       .  S
C980        C985   1.508       .  S
C980        C981   1.409       .  A
C981        C982   1.420       .  A
C981        H986   1.077       .  S
C982        C983   1.431       .  A
C983        C987   1.504       .  S
C983        C984   1.409       .  A
C984        H988   1.085       .  S
C985        H995   1.111       .  S
C985        H996   1.110       .  S
C985        H997   1.109       .  S
C987        H998   1.106       .  S
C987        H999   1.100       .  S
C987       H1000   1.111       .  S
C1001      C1002   1.395       .  A
C1001      C1006   1.396       .  A
C1001      H1011   1.085       .  S
C1002      C1003   1.392       .  A
C1002      C1007   1.443       .  S
C1003      C1008   1.514       .  S
C1003      C1004   1.378       .  A
C1004      C1005   1.412       .  A
C1004      H1009   1.062       .  S
C1005      C1006   1.424       .  A
C1006      C1010   1.508       .  S
C1007      C1012   1.412       .  A
C1007      C1016   1.394       .  A
C1008      H1024   1.110       .  S
C1008      H1025   1.110       .  S
C1008      H1026   1.111       .  S
C1010      H1021   1.111       .  S
C1010      H1022   1.108       .  S
C1010      H1023   1.110       .  S
C1012      C1017   1.513       .  S
C1013      C1014   1.393       .  A
C1013      H1018   1.084       .  S
C1015      C1019   1.509       .  S
C1015      C1016   1.387       .  A
C1016      H1020   1.083       .  S
C1017      H1028   1.107       .  S
C1017      H1029   1.110       .  S
C1019      H1030   1.108       .  S
C1019      H1031   1.102       .  S
C1019      H1032   1.110       .  S
C1033      C1034   1.376       .  A
C1033      C1038   1.394       .  A
C1033      H1043   1.085       .  S
C1034      C1035   1.407       .  A
C1034      C1039   1.456       .  S
C1035      C1040   1.507       .  S
C1035      C1036   1.396       .  A
C1036      C1037   1.410       .  A
C1036      H1041   1.079   1_455  S
C1037      C1038   1.441       .  A
C1038      C1042   1.494       .  S
C1039      C1044   1.397       .  A
C1039      C1048   1.394       .  A
C1040      H1056   1.110       .  S
C1040      H1057   1.110       .  S
C1040      H1058   1.110       .  S
C1042      H1053   1.095       .  S
C1042      H1054   1.111       .  S
C1042      H1055   1.108       .  S
C1044      C1049   1.502       .  S
C1044      C1045   1.385       .  A
C1045      H1050   1.079       .  S
C1047      C1048   1.399       .  A
C1048      H1052   1.071       .  S
C1049      H1059   1.103       .  S
C1049      H1060   1.110       .  S
C1049      H1061   1.109       .  S
C1051      H1062   1.102       .  S
C1051      H1063   1.110       .  S
C1051      H1064   1.110       .  S
C1065      C1066   1.396       .  A
C1065      C1070   1.407       .  A
C1065      H1075   1.086       .  S
C1066      C1067   1.414       .  A
C1066      C1071   1.505       .  S
C1067      C1072   1.510       .  S
C1067      C1068   1.412       .  A
C1068      C1069   1.417       .  A
C1068      H1073   1.077       .  S
C1069      C1070   1.437       .  A
C1070      C1074   1.512       .  S
C1071      C1076   1.418       .  A
C1071      C1080   1.402       .  A
C1072      H1088   1.108       .  S
C1074      H1085   1.111       .  S
C1074      H1086   1.106       .  S
C1074      H1087   1.109       .  S
C1076      C1081   1.510       .  S
C1076      C1077   1.405       .  A
C1077      C1078   1.409       .  A
C1077      H1082   1.079       .  S
C1078      C1079   1.433       .  A
C1079      C1083   1.513       .  S
C1079      C1080   1.412       .  A
C1080      H1084   1.086       .  S
C1081      H1092   1.107       .  S
C1083      H1094   1.107       .  S
C1083      H1095   1.106       .  S
C1083      H1096   1.111       .  S
C1097      C1098   1.395   1_565  A
C1097      C1102   1.406       .  A
C1097      H1107   1.084       .  S
C1098      C1099   1.408       .  A
C1098      C1103   1.493       .  S
C1099      C1508   1.414       .  A
C1100      C1507   1.412       .  A
C1100      C1509   1.417   1_545  A
C1100      H1105   1.079       .  S
C1101      C1289   1.557       .  S
C1101      C1508   1.418   1_565  A
C1101      C1102   1.438       .  A
C1102      C1106   1.515       .  S
C1103      C1108   1.405   1_545  A
C1103      C1112   1.401       .  A
C1104      H1529   1.110       .  S
C1104      H1122   1.111       .  S
C1106      H1117   1.111       .  S
C1106      H1118   1.105       .  S
C1106      H1119   1.105       .  S
C1108      C1109   1.407       .  A
C1109      C1110   1.415       .  A
C1109      H1114   1.081       .  S
C1110      C1111   1.427       .  A
C1111      C1115   1.507   1_564  S
C1111      C1112   1.411   1_565  A
C1112      H1116   1.084   1_554  S
C1113      H1123   1.109       .  S
C1113      H1125   1.108       .  S
C1115      H1126   1.107   1_545  S
C1115      H1127   1.104   1_546  S
C1115      H1128   1.110       .  S
H1121      C1512   1.110       .  S
C1129      C1130   1.394       .  A
C1129      C1134   1.371       .  A
C1129      H1139   1.086       .  S
C1130      C1131   1.410       .  A
C1130      C1135   1.455       .  S
C1131      C1136   1.501       .  S
C1131      C1132   1.396       .  A
C1132      C1133   1.405       .  A
C1132      H1545   1.085       .  S
C1133      C1294   1.462       .  S
C1133      C1134   1.404       .  A
C1134      C1138   1.490       .  S
C1135      C1140   1.406       .  A
C1135      C1144   1.404       .  A
C1136      H1152   1.109       .  S
C1136      H1153   1.110       .  S
C1136      H1154   1.105       .  S
H1137      C1540   1.083       .  S
C1138      H1149   1.098       .  S
C1138      H1558   1.111       .  S
C1138      H1151   1.109       .  S
C1140      C1145   1.506       .  S
C1140      C1141   1.386       .  A
C1141      C1142   1.402       .  A
C1141      H1146   1.084       .  S
C1142      C1143   1.408   1_455  A
C1143      C1147   1.507       .  S
C1143      C1144   1.391   1_655  A
C1144      H1148   1.082   1_455  S
C1145      H1155   1.107       .  S
C1145      H1156   1.110       .  S
C1145      H1157   1.107       .  S
C1147      H1158   1.108       .  S
C1147      H1159   1.110       .  S
C1147      H1160   1.096   1_554  S
H1150      C1546   1.111       .  S
C1161      C1162   1.396       .  A
C1161      C1166   1.387   1_556  A
C1161      H1171   1.086       .  S
C1162      C1163   1.407       .  A
C1162      C1167   1.471       .  S
C1163      C1168   1.503       .  S
C1163      C1164   1.408   1_556  A
C1164      C1165   1.413       .  A
C1164      H1169   1.082       .  S
C1165      C1166   1.413       .  A
C1166      C1170   1.497       .  S
C1167      C1580   1.402       .  A
C1167      C1176   1.396   1_556  A
C1168      H1184   1.110       .  S
C1168      H1185   1.110       .  S
C1168      H1186   1.111   1_556  S
C1170      H1181   1.100       .  S
C1170      H1182   1.109       .  S
C1170      H1183   1.104       .  S
C1172      C1177   1.504       .  S
C1172      C1575   1.401       .  A
C1172      C1173   1.406       .  A
C1173      C1582   1.417       .  A
C1173      H1178   1.082       .  S
C1174      C1230   1.507       .  S
C1174      C1581   1.417       .  A
C1174      C1175   1.414   1_556  A
C1175      C1179   1.486       .  S
C1175      C1176   1.398       .  A
C1176      H1180   1.087       .  S
C1177      H1187   1.111       .  S
C1177      H1188   1.109       .  S
C1177      H1189   1.110       .  S
C1179      H1190   1.109       .  S
C1179      H1191   1.105       .  S
C1179      H1192   1.102       .  S
C1193      C1194   1.398       .  A
C1193      C1198   1.414       .  A
C1193      H1203   1.085       .  S
C1194      C1195   1.409       .  A
C1194      C1199   1.498       .  S
C1195      C1200   1.509       .  S
C1195      C1196   1.407       .  A
C1196      C1197   1.417       .  A
C1196      H1201   1.082       .  S
C1197      C1198   1.438       .  A
C1198      C1202   1.506       .  S
C1199      C1204   1.408       .  A
C1199      C1208   1.402       .  A
C1200      H1624   1.110   1_554  S
C1200      H1217   1.108       .  S
C1200      H1626   1.111       .  S
C1202      H1213   1.106       .  S
C1202      H1214   1.111       .  S
C1202      H1215   1.109       .  S
C1204      C1209   1.510       .  S
C1204      C1205   1.404       .  A
C1205      C1206   1.420       .  A
C1205      H1210   1.072       .  S
C1206      C1225   1.566   1_554  S
C1206      C1615   1.434       .  A
C1207      C1211   1.513       .  S
C1207      C1614   1.434       .  A
C1207      C1616   1.417       .  A
C1208      C1615   1.416       .  A
C1208      H1620   1.086       .  S
C1209      H1219   1.111       .  S
C1209      H1220   1.108       .  S
C1209      H1221   1.110       .  S
C1211      H1222   1.111       .  S
C1211      H1223   1.106       .  S
C1211      H1224   1.105       .  S
H1212      C1616   1.085       .  S
H1216      C1608   1.111       .  S
H1218      C1608   1.111       .  S
C1225      C1226   1.525       .  S
C1225      C1231   1.544       .  S
C1226      H1233   1.087       .  S
C1226      C1227   1.361       .  D
C1227      C1228   1.568       .  S
C1227      C1337   1.520       .  S
C1228      C1232   1.565       .  S
C1228      C1230   1.522       .  S
C1228      H1234   1.107       .  S
C1229      H1235   1.073       .  S
C1231      C1232   1.363       .  D
C1237      C1238   1.549       .  S
C1237      C1243   1.562       .  S
C1237      C1241   1.537       .  S
C1237      C1605   1.562       .  S
C1238      H1245   1.071       .  S
C1238      C1239   1.369   1_655  D
C1239      C1240   1.550       .  S
C1239      C1352   1.524       .  S
C1240      C1244   1.553       .  S
C1240      C1242   1.519   1_455  S
C1240      H1246   1.109       .  S
C1241      H1247   1.084       .  S
C1241      C1242   1.365       .  D
C1242      C1550   1.455       .  S
C1243      H1248   1.084       .  S
C1243      C1244   1.374   1_655  D
C1244      C1275   1.539       .  S
O1249     Cu1257   2.063       .  S
O1250     Cu1257   2.058       .  S
O1250      C1260   1.284       .  A
O1251     Cu1257   2.093       .  S
O1251      C1261   1.288       .  A
O1252     Cu1257   2.062       .  S
O1252      C1262   1.288       .  A
O1253     Cu1258   2.064       .  S
O1253      C1262   1.280       .  A
O1254     Cu1258   2.035       .  S
O1254      C1261   1.280       .  A
O1255     Cu1258   2.094       .  S
O1255      C1260   1.286       .  A
O1256      C1259   1.289       .  A
Cu1257    Cu1258   2.354       .  S
C1260      C1360   1.527       .  S
O1263      C1273   1.282   1_655  A
O1264     Cu1271   2.054       .  S
O1264      C1274   1.279       .  A
O1265     Cu1271   2.074   1_655  S
O1265      C1275   1.285   1_655  A
O1266     Cu1271   2.089       .  S
O1266      C1276   1.285       .  A
O1267     Cu1272   2.063       .  S
O1267      C1276   1.285       .  A
O1268     Cu1272   2.097       .  S
O1268      C1275   1.289       .  A
O1269     Cu1272   2.073       .  S
O1269      C1274   1.286       .  A
O1270     Cu1272   2.066       .  S
Cu1271    Cu1272   2.354       .  S
C1273      C1372   1.512   1_454  S
C1277      C1278   1.542       .  S
C1277      C1283   1.543       .  S
C1277      C1281   1.545       .  S
C1277      C1518   1.559       .  S
C1278      C1279   1.373       .  D
C1279      C1280   1.560       .  S
C1280      C1284   1.542       .  S
C1280      C1282   1.544       .  S
C1280      H1286   1.098       .  S
C1281      H1287   1.085       .  S
C1281      C1282   1.375       .  D
C1282      C1573   1.492       .  S
C1283      H1288   1.083       .  S
C1283      C1284   1.362       .  D
C1284      C1338   1.499       .  S
C1289      C1290   1.553   1_565  S
C1289      C1295   1.534   1_554  S
C1290      C1291   1.380       .  D
C1291      C1292   1.564   1_544  S
C1292      C1296   1.552       .  S
C1292      C1294   1.529   1_556  S
C1292      H1298   1.108       .  S
C1293      H1299   1.081       .  S
C1295      H1300   1.085       .  S
C1295      C1296   1.359       .  D
C1296      C1351   1.512       .  S
C1301      C1302   1.559       .  S
C1301      C1307   1.543       .  S
C1301      C1305   1.534       .  S
C1301      C1477   1.557       .  S
C1302      H1309   1.083       .  S
C1302      C1303   1.376       .  D
C1303      C1304   1.552       .  S
C1304      C1308   1.556       .  S
C1304      C1306   1.535       .  S
C1304      H1310   1.111       .  S
C1305      H1311   1.085       .  S
C1305      C1306   1.357       .  D
C1306      C1454   1.461   1_565  S
C1307      H1312   1.065       .  S
C1307      C1308   1.361       .  D
C1308      C1349   1.518       .  S
C1313      C1314   1.555       .  S
C1313      C1319   1.544       .  S
C1313      C1317   1.530       .  S
C1313      C1486   1.550       .  S
C1314      H1321   1.082       .  S
C1314      C1315   1.367       .  D
C1315      C1316   1.557       .  S
C1316      C1320   1.566       .  S
C1316      C1318   1.527       .  S
C1316      H1322   1.111       .  S
C1317      H1323   1.082       .  S
C1317      C1318   1.353       .  D
C1318      C1422   1.440       .  S
C1319      H1324   1.081       .  S
C1319      C1320   1.370       .  D
C1320      C1336   1.532       .  S
O1325     Cu1333   2.072       .  S
O1325      C1335   1.285       .  A
O1326     Cu1333   2.088       .  S
O1326      C1336   1.284       .  A
O1327     Cu1333   2.058       .  S
O1327      C1337   1.288       .  A
O1328     Cu1333   2.049       .  S
O1328      C1338   1.280       .  A
O1329     Cu1334   2.036       .  S
O1329      C1338   1.281       .  A
O1330     Cu1334   2.060       .  S
O1330      C1337   1.279       .  A
O1331     Cu1334   2.070       .  S
O1331      C1336   1.287       .  A
O1332     Cu1334   2.090       .  S
O1332      C1335   1.286       .  A
Cu1333    Cu1334   2.355       .  S
C1335      C1355   1.542       .  S
O1339     Cu1347   2.074       .  S
O1339      C1349   1.282       .  A
O1340     Cu1347   2.028       .  S
O1340      C1350   1.282       .  A
O1341     Cu1347   2.072       .  S
O1341      C1351   1.283       .  A
O1342     Cu1347   2.078       .  S
O1342      C1352   1.289       .  A
O1343     Cu1348   2.062       .  S
O1343      C1352   1.278       .  A
O1344     Cu1348   2.029       .  S
O1344      C1351   1.281       .  A
O1345     Cu1348   2.068       .  S
O1345      C1350   1.278       .  A
O1346     Cu1348   2.055       .  S
O1346      C1349   1.286       .  A
Cu1347    Cu1348   2.353       .  S
C1350      C1367   1.522       .  S
C1353      C1354   1.550       .  S
C1353      C1359   1.530       .  S
C1353      C1357   1.549       .  S
C1353      C1390   1.558       .  S
C1354      H1361   1.086       .  S
C1354      C1355   1.380       .  D
C1355      C1356   1.569       .  S
C1356      C1360   1.557       .  S
C1356      C1358   1.543       .  S
C1356      H1362   1.104       .  S
C1357      H1363   1.071       .  S
C1357      C1358   1.374       .  D
C1358      C1413   1.490       .  S
C1359      H1364   1.087       .  S
C1359      C1360   1.359       .  D
C1365      C1366   1.522       .  S
C1365      C1371   1.521       .  S
C1365      C1369   1.567       .  S
C1365      C1381   1.551       .  S
C1366      H1373   1.085       .  S
C1366      C1367   1.363   1_655  D
C1367      C1368   1.577       .  S
C1368      C1372   1.560   1_455  S
C1368      C1370   1.530       .  S
C1368      H1374   1.101       .  S
C1369      H1375   1.081       .  S
C1369      C1370   1.388   1_655  D
C1370      C1445   1.497       .  S
C1371      H1376   1.087       .  S
C1371      C1372   1.361       .  D
C1377      C1378   1.392       .  A
C1377      C1382   1.403       .  A
C1377      H1387   1.084       .  S
C1378      C1379   1.409       .  A
C1378      C1383   1.487       .  S
C1379      C1384   1.506       .  S
C1379      C1380   1.410       .  A
C1380      C1381   1.413       .  A
C1380      H1385   1.078       .  S
C1381      C1382   1.436       .  A
C1382      C1386   1.513       .  S
C1383      C1388   1.406       .  A
C1383      C1392   1.395       .  A
C1384      H1400   1.111       .  S
C1384      H1401   1.110       .  S
C1384      H1402   1.111       .  S
C1386      H1397   1.111       .  S
C1386      H1398   1.108       .  S
C1386      H1399   1.100       .  S
C1388      C1393   1.508       .  S
C1388      C1389   1.406       .  A
C1389      C1390   1.419       .  A
C1389      H1394   1.076       .  S
C1390      C1391   1.432       .  A
C1391      C1395   1.503       .  S
C1391      C1392   1.408       .  A
C1392      H1396   1.086       .  S
C1393      H1403   1.111       .  S
C1393      H1404   1.110       .  S
C1393      H1405   1.110       .  S
C1395      H1406   1.105       .  S
C1395      H1407   1.102       .  S
C1395      H1408   1.111       .  S
C1409      C1410   1.396       .  A
C1409      C1414   1.397       .  A
C1409      H1419   1.085       .  S
C1410      C1411   1.392       .  A
C1410      C1415   1.442       .  S
C1411      C1416   1.514       .  S
C1411      C1412   1.375       .  A
C1412      C1413   1.409       .  A
C1412      H1417   1.064       .  S
C1413      C1414   1.425       .  A
C1414      C1418   1.508       .  S
C1415      C1420   1.410       .  A
C1415      C1424   1.393       .  A
C1416      H1432   1.109       .  S
C1416      H1433   1.111       .  S
C1416      H1434   1.111       .  S
C1418      H1429   1.111       .  S
C1418      H1430   1.108       .  S
C1418      H1431   1.110       .  S
C1420      C1425   1.512       .  S
C1421      C1422   1.392       .  A
C1421      H1426   1.083       .  S
C1423      C1427   1.509       .  S
C1423      C1424   1.386       .  A
C1424      H1428   1.085       .  S
C1425      H1436   1.107       .  S
C1425      H1437   1.111       .  S
C1427      H1438   1.108       .  S
C1427      H1439   1.101       .  S
C1427      H1440   1.110       .  S
C1441      C1442   1.380       .  A
C1441      C1446   1.389       .  A
C1441      H1451   1.085       .  S
C1442      C1443   1.416       .  A
C1442      C1447   1.461       .  S
C1443      C1448   1.504       .  S
C1443      C1444   1.399       .  A
C1444      C1445   1.402       .  A
C1444      H1449   1.083   1_455  S
C1445      C1446   1.424       .  A
C1446      C1450   1.485       .  S
C1447      C1452   1.404       .  A
C1447      C1456   1.395       .  A
C1448      H1464   1.109       .  S
C1448      H1465   1.110       .  S
C1448      H1466   1.109       .  S
C1450      H1461   1.094       .  S
C1450      H1462   1.112       .  S
C1450      H1463   1.099       .  S
C1452      C1457   1.505       .  S
C1452      C1453   1.386       .  A
C1453      H1458   1.081       .  S
C1455      C1456   1.401       .  A
C1456      H1460   1.076       .  S
C1457      H1467   1.105       .  S
C1457      H1468   1.110       .  S
C1457      H1469   1.109       .  S
C1459      H1470   1.107       .  S
C1459      H1471   1.109       .  S
C1459      H1472   1.110       .  S
C1473      C1474   1.395       .  A
C1473      C1478   1.406       .  A
C1473      H1483   1.085       .  S
C1474      C1475   1.413       .  A
C1474      C1479   1.501       .  S
C1475      C1480   1.510       .  S
C1475      C1476   1.411       .  A
C1476      C1477   1.417       .  A
C1476      H1481   1.077       .  S
C1477      C1478   1.438       .  A
C1478      C1482   1.511       .  S
C1479      C1484   1.416       .  A
C1479      C1488   1.401       .  A
C1480      H1496   1.109       .  S
C1482      H1493   1.111       .  S
C1482      H1494   1.107       .  S
C1482      H1495   1.109       .  S
C1484      C1489   1.509       .  S
C1484      C1485   1.404       .  A
C1485      C1486   1.409       .  A
C1485      H1490   1.078       .  S
C1486      C1487   1.431       .  A
C1487      C1491   1.513       .  S
C1487      C1488   1.411       .  A
C1488      H1492   1.084       .  S
C1489      H1500   1.107       .  S
C1491      H1502   1.107       .  S
C1491      H1503   1.106       .  S
C1491      H1504   1.111       .  S
C1505      C1506   1.395   1_565  A
C1505      C1510   1.405       .  A
C1505      H1515   1.084       .  S
C1506      C1507   1.408       .  A
C1506      C1511   1.492       .  S
C1508      H1513   1.076       .  S
C1509      C1510   1.437       .  A
C1510      C1514   1.515       .  S
C1511      C1516   1.406   1_545  A
C1511      C1520   1.402       .  A
C1512      H1530   1.111       .  S
C1514      H1525   1.111       .  S
C1514      H1526   1.105       .  S
C1514      H1527   1.106       .  S
C1516      C1517   1.404       .  A
C1517      C1518   1.417       .  A
C1517      H1522   1.079       .  S
C1518      C1519   1.431       .  A
C1519      C1523   1.508   1_565  S
C1519      C1520   1.414   1_565  A
C1520      H1524   1.085       .  S
C1521      H1531   1.110       .  S
C1521      H1533   1.108       .  S
C1523      H1534   1.109   1_545  S
C1523      H1535   1.104   1_545  S
C1523      H1536   1.111       .  S
C1537      C1538   1.394       .  A
C1537      C1542   1.373       .  A
C1537      H1547   1.086       .  S
C1538      C1539   1.411       .  A
C1538      C1543   1.454       .  S
C1539      C1544   1.497       .  S
C1539      C1540   1.392       .  A
C1540      C1541   1.401       .  A
C1541      C1542   1.405       .  A
C1542      C1546   1.488       .  S
C1543      C1548   1.406       .  A
C1543      C1552   1.404   1_455  A
C1544      H1560   1.108       .  S
C1544      H1561   1.110       .  S
C1544      H1562   1.104       .  S
C1546      H1557   1.098       .  S
C1546      H1559   1.109       .  S
C1548      C1553   1.505       .  S
C1548      C1549   1.383       .  A
C1549      C1550   1.398   1_455  A
C1549      H1554   1.085       .  S
C1550      C1551   1.409       .  A
C1551      C1555   1.508       .  S
C1551      C1552   1.392       .  A
C1552      H1556   1.079       .  S
C1553      H1563   1.106       .  S
C1553      H1564   1.110       .  S
C1553      H1565   1.105       .  S
C1555      H1566   1.108       .  S
C1555      H1567   1.110       .  S
C1555      H1568   1.097       .  S
C1569      C1570   1.395       .  A
C1569      C1574   1.386       .  A
C1569      H1579   1.087       .  S
C1570      C1571   1.405       .  A
C1570      C1575   1.469       .  S
C1571      C1576   1.503       .  S
C1571      C1572   1.406       .  A
C1572      C1573   1.414       .  A
C1572      H1577   1.083       .  S
C1573      C1574   1.415       .  A
C1574      C1578   1.497       .  S
C1575      C1584   1.396       .  A
C1576      H1592   1.110       .  S
C1576      H1593   1.110       .  S
C1576      H1594   1.110       .  S
C1578      H1589   1.098       .  S
C1578      H1590   1.109       .  S
C1578      H1591   1.106       .  S
C1580      C1585   1.505       .  S
C1580      C1581   1.406       .  A
C1581      H1586   1.081       .  S
C1582      C1583   1.412       .  A
C1583      C1587   1.484       .  S
C1583      C1584   1.397       .  A
C1584      H1588   1.085       .  S
C1585      H1595   1.111       .  S
C1585      H1596   1.109       .  S
C1585      H1597   1.110       .  S
C1587      H1598   1.109       .  S
C1587      H1599   1.104       .  S
C1587      H1600   1.100       .  S
C1601      C1602   1.398       .  A
C1601      C1606   1.414       .  A
C1601      H1611   1.085       .  S
C1602      C1603   1.410       .  A
C1602      C1607   1.499       .  S
C1603      C1608   1.509       .  S
C1603      C1604   1.408       .  A
C1604      C1605   1.418       .  A
C1604      H1609   1.082       .  S
C1605      C1606   1.437       .  A
C1606      C1610   1.506       .  S
C1607      C1612   1.408       .  A
C1607      C1616   1.402       .  A
C1608      H1625   1.108       .  S
C1610      H1621   1.105       .  S
C1610      H1622   1.111       .  S
C1610      H1623   1.110       .  S
C1612      C1617   1.510       .  S
C1612      C1613   1.404       .  A
C1613      C1614   1.420       .  A
C1613      H1618   1.075       .  S
C1615      C1619   1.512   1_554  S
C1617      H1627   1.111       .  S
C1617      H1628   1.108       .  S
C1617      H1629   1.110       .  S
C1619      H1630   1.111   1_556  S
C1619      H1631   1.105   1_556  S
C1619      H1632   1.105       .  S
