geometry optimzed in LAMMPS
_audit_creation_date              2020-11-30 
_audit_creation_method            'lammps2cif' 
_symmetry_space_group_name_H-M    'P1' 
_symmetry_Int_Tables_number       1 
_symmetry_cell_setting            triclinic 
loop_ 
_symmetry_equiv_pos_as_xyz 
  x,y,z 
_cell_length_a                    32.63582165 
_cell_length_b                    32.844082932756685 
_cell_length_c                    47.47946989118958 
_cell_angle_alpha                 90.00633740128836 
_cell_angle_beta                  90.1401696629583 
_cell_angle_gamma                 121.51950237485678 
loop_ 
_atom_site_label 
_atom_site_type_symbol 
_atom_site_fract_x 
_atom_site_fract_y 
_atom_site_fract_z 
_atom_site_charge 
C1          C  0.33198880  0.16697831  0.34711266     0.45300
H2          H  0.32901393  0.16467351  0.32381683    -0.03700
C3          C  0.33765292  0.16945631  0.40168446     0.45400
H4          H  0.34126467  0.17202101  0.42472151    -0.03700
C5          C  0.36413246  0.21829398  0.35890413    -0.17400
C6          C  0.28281707  0.14590693  0.36215422    -0.17200
C7          C  0.35382410  0.13892629  0.35881162    -0.17500
C8          C  0.36504367  0.21936466  0.38803659    -0.17500
C9          C  0.28530670  0.14651996  0.39130539    -0.17100
C10         C  0.35787187  0.14106690  0.38754863    -0.17400
C11         C  0.15804210  0.33788262  0.15166155     0.45300
H12         H  0.15687279  0.33877532  0.17495626    -0.03700
C13         C  0.16359757  0.33902866  0.09694613     0.45400
H14         H  0.16565592  0.33979275  0.07371524    -0.03700
C15         C  0.20974982  0.36287988  0.14098364    -0.17400
C16         C  0.13265519  0.28726093  0.13841959    -0.17200
C17         C  0.13595480  0.36392366  0.13689372    -0.17500
C18         C  0.21278686  0.36325308  0.11226710    -0.17500
C19         C  0.13532597  0.28818913  0.10920933    -0.17100
C20         C  0.13777440  0.36369026  0.10795566    -0.17400
O21         O  0.40540223  0.49120342  0.03691235    -0.78600
C22         C  0.04547418  0.11152949  0.04538489     0.82400
O23         O  0.46392594  0.03678404  0.44090270    -0.79800
O24         O  0.11017771  0.06464091  0.48360596    -0.81200
O25         O  0.00318168  0.42141118  0.03688624    -0.81000
O26         O  0.40365375  0.42311590  0.04006343    -0.79700
Zn27       Zn  0.46103125  0.03518177  0.01261462     1.55700
O28         O  0.07239910  0.49138050  0.03925627    -0.81100
Cd29       Cd  0.45958865  0.43614248  0.01400623     1.59700
Cd30       Cd  0.49712964  0.00325691  0.45755384     1.59600
O31         O  0.43407018  0.38815550  0.48082678    -0.81100
O32         O  0.49427968  0.00383877  0.00003600    -1.91600
Cd33       Cd  0.06014082  0.03711559  0.01563379     1.57300
O34         O  0.46163646  0.43314422  0.44210126    -0.81000
O35         O  0.07136054  0.09376664  0.04044049    -0.79700
C36         C  0.44050378  0.05330768  0.45254772     0.82900
C37         C  0.38711571  0.44933435  0.04677725     0.82500
O38         O  0.00316566  0.09311731  0.03547218    -0.78600
C39         C  0.04653584  0.44704380  0.04517943     0.83300
O40         O  0.43554442  0.05330962  0.47912025    -0.78700
C41         C  0.43857434  0.39247221  0.45417010     0.83500
C42         C  0.10796231  0.06369203  0.45678150     0.83800
O43         O  0.06800583  0.04123001  0.44356978    -0.81100
O44         O  0.01359365  0.09305136  0.21166511    -0.78600
C45         C  0.38724857  0.45169660  0.20495627     0.82400
O46         O  0.46122783  0.03426207  0.30764196    -0.79800
O47         O  0.44123991  0.38928741  0.26533081    -0.81200
O48         O  0.08095203  0.49153714  0.21435866    -0.81000
O49         O  0.08245904  0.09448279  0.20988507    -0.79700
Zn50       Zn  0.46869221  0.03803733  0.23629298     1.55700
O51         O  0.00802294  0.42765004  0.20822493    -0.81100
Cd52       Cd  0.06650373  0.03766272  0.23627832     1.59700
Cd53       Cd  0.49740145  0.00161630  0.29207451     1.59600
O54         O  0.11303097  0.06342572  0.27005924    -0.81100
O55         O  0.49922121  0.00471771  0.24985507    -1.91600
Cd56       Cd  0.46355306  0.43910004  0.23373544     1.59900
O57         O  0.06608768  0.03590036  0.30817931    -0.81000
O58         O  0.40344143  0.42506454  0.21137895    -0.79700
C59         C  0.44596920  0.05825788  0.29502161     0.82900
C60         C  0.05661518  0.11149084  0.20296219     0.82500
O61         O  0.40888624  0.49529800  0.21251039    -0.78600
C62         C  0.05317741  0.44989604  0.20426368     0.83300
O63         O  0.44840597  0.06333829  0.26839095    -0.78700
C64         C  0.10746671  0.05850485  0.29663159     0.83500
C65         C  0.44297774  0.39160036  0.29208514     0.83800
O66         O  0.46227346  0.43143038  0.30520371    -0.81100
C67         C  0.06648837  0.15619040  0.06177884    -0.06300
C68         C  0.11291991  0.19270982  0.05465979    -0.17400
C69         C  0.13556085  0.23684998  0.06846597     0.10900
C70         C  0.11156117  0.24453844  0.09084751    -0.06200
C71         C  0.06387565  0.20850811  0.09692569    -0.17400
C72         C  0.04143586  0.16436847  0.08303300     0.11000
S73         S  0.19453171  0.28184156  0.05637537    -0.32400
S74         S  0.98199779  0.11945344  0.09446702    -0.32400
H75         H  0.98812489  0.08054259  0.09037611     0.29000
H76         H  0.20299151  0.25283205  0.03853498     0.29000
H77         H  0.13119794  0.18673070  0.03763089     0.19600
H78         H  0.04441618  0.21422158  0.11335960     0.19600
C79         C  0.34539373  0.43016220  0.06614859    -0.06300
C80         C  0.32760140  0.38466723  0.07804850    -0.17400
C81         C  0.28578952  0.36260066  0.09430195     0.10900
C82         C  0.25924643  0.38520729  0.09732849    -0.06200
C83         C  0.27938550  0.43216402  0.08804708    -0.17400
C84         C  0.32210362  0.45519979  0.07291106     0.11000
S85         S  0.27028531  0.30696095  0.11114923    -0.32400
S86         S  0.34462535  0.51663064  0.06387960    -0.32400
H87         H  0.38906937  0.03364836  0.07600684     0.29000
H88         H  0.22326822  0.29217352  0.11901607     0.29000
H89         H  0.34635190  0.36590032  0.07475731     0.19600
H90         H  0.26245874  0.45188494  0.09359363     0.19600
C91         C  0.11371880  0.38223113  0.08931874    -0.06300
C92         C  0.06549962  0.36733006  0.09473994    -0.17400
C93         C  0.04308157  0.38881025  0.08165294     0.10900
C94         C  0.06829045  0.42439043  0.06111935    -0.06200
C95         C  0.11489313  0.43661061  0.05392569    -0.17400
C96         C  0.13750835  0.41542710  0.06724167     0.11000
S97         S  0.98332961  0.37082347  0.09319479    -0.32400
S98         S  0.19519628  0.42993575  0.05419818    -0.32400
H99         H  0.20370783  0.46763729  0.03625567     0.29000
H100        H  0.99018641  0.41674952  0.09139975     0.29000
H101        H  0.04505819  0.33896516  0.10960898     0.19600
H102        H  0.13315880  0.46210187  0.03713335     0.19600
C103        C  0.11338442  0.24242421  0.15577387    -0.06300
C104        C  0.12585755  0.20869262  0.14816779    -0.17400
C105        C  0.10763635  0.16534623  0.16258923     0.10900
C106        C  0.07709352  0.15547082  0.18588200    -0.06200
C107        C  0.06599536  0.18942588  0.19414863    -0.17400
C108        C  0.08404885  0.23270463  0.17987485     0.11000
S109        S  0.12313768  0.12362823  0.14947774    -0.32400
S110        S  0.06829419  0.27380982  0.19342963    -0.32400
H111        H  0.04216322  0.24778080  0.21722906     0.29000
H112        H  0.07805614  0.08263407  0.15507335     0.29000
H113        H  0.14981190  0.21588085  0.13062388     0.19600
H114        H  0.04333108  0.18206209  0.21239870     0.19600
C115        C  0.25279018  0.38596081  0.15981153    -0.06300
C116        C  0.28660266  0.43483379  0.15634934    -0.17400
C117        C  0.33119038  0.45720293  0.17010113     0.10900
C118        C  0.34134394  0.43061968  0.18919969    -0.06200
C119        C  0.30658368  0.38225342  0.19371162    -0.17400
C120        C  0.26263213  0.35963404  0.17921745     0.11000
S121        S  0.37565414  0.51840494  0.16130826    -0.32400
S122        S  0.22064499  0.29693626  0.18507891    -0.32400
H123        H  0.24843234  0.28927491  0.20458162     0.29000
H124        H  0.34921137  0.52431344  0.13996735     0.29000
H125        H  0.27853788  0.45533056  0.14215079     0.19600
H126        H  0.31409570  0.36201862  0.20861460     0.19600
C127        C  0.11532827  0.38752274  0.15308703    -0.06300
C128        C  0.06825512  0.35932535  0.16287641    -0.17400
C129        C  0.04806797  0.37765515  0.18081830     0.10900
C130        C  0.07400086  0.42708957  0.18731622    -0.06200
C131        C  0.12099063  0.45576190  0.17677315    -0.17400
C132        C  0.14196129  0.43653493  0.15995825     0.11000
S133        S  0.99077720  0.33485839  0.19604796    -0.32400
S134        S  0.20287358  0.47651476  0.14850911    -0.32400
H135        H  0.19929886  0.45360364  0.12294360     0.29000
H136        H  0.00504980  0.35242036  0.22365156     0.29000
H137        H  0.04710879  0.32210921  0.15684281     0.19600
H138        H  0.14167912  0.49361894  0.18150748     0.19600
C139        C  0.38081898  0.11933945  0.40360466    -0.06300
C140        C  0.35071974  0.07766328  0.41881766    -0.17400
C141        C  0.36902126  0.05511241  0.43482227     0.10900
C142        C  0.41882598  0.07356286  0.43479805    -0.06200
C143        C  0.44901271  0.11347998  0.41827837    -0.17400
C144        C  0.43082287  0.13688916  0.40283830     0.11000
S145        S  0.32685715  0.00242421  0.45425231    -0.32400
S146        S  0.47411717  0.18853464  0.38310284    -0.32400
H147        H  0.44391375  0.20502762  0.37584232     0.29000
H148        H  0.35307030  0.97953036  0.45247454     0.29000
H149        H  0.31222358  0.06124948  0.41724680     0.19600
H150        H  0.48733293  0.12736631  0.41807607     0.19600
C151        C  0.41797332  0.34842957  0.43718098    -0.06300
C152        C  0.42885082  0.31411230  0.44529395    -0.17400
C153        C  0.41286187  0.27231410  0.42960068     0.10900
C154        C  0.38349104  0.26348397  0.40558763    -0.06200
C155        C  0.37129592  0.29733578  0.39809351    -0.17400
C156        C  0.38879398  0.33988551  0.41326550     0.11000
S157        S  0.43402702  0.23320853  0.43932521    -0.32400
S158        S  0.37178182  0.38116055  0.40134321    -0.32400
H159        H  0.36976302  0.39782643  0.42828022     0.29000
H160        H  0.46687896  0.26249941  0.46024408     0.29000
H161        H  0.45148396  0.32102143  0.46358521     0.19600
H162        H  0.34809302  0.29076699  0.38015164     0.19600
C163        C  0.15365769  0.08832527  0.44090453    -0.06300
C164        C  0.19174854  0.08454074  0.45099350    -0.17400
C165        C  0.23563542  0.10467259  0.43667565     0.10900
C166        C  0.24205281  0.12916104  0.41066666    -0.06200
C167        C  0.20488166  0.13672287  0.40247110    -0.17400
C168        C  0.16095016  0.11613803  0.41674196     0.11000
S169        S  0.28172629  0.09961743  0.45412745    -0.32400
S170        S  0.11659251  0.12839349  0.40357870    -0.32400
H171        H  0.09906644  0.13057645  0.43022041     0.29000
H172        H  0.25134046  0.05849715  0.47002355     0.29000
H173        H  0.18691025  0.06526408  0.47042768     0.19600
H174        H  0.20996966  0.15971812  0.38500426     0.19600
C175        C  0.37326470  0.11595316  0.34045401    -0.06300
C176        C  0.41132529  0.14531147  0.32228430    -0.17400
C177        C  0.43649747  0.12789487  0.30781416     0.10900
C178        C  0.42333662  0.07975384  0.31133984    -0.06200
C179        C  0.38414749  0.04995600  0.32861127    -0.17400
C180        C  0.35812129  0.06697335  0.34243624     0.11000
S181        S  0.98186579  0.16803962  0.28381384    -0.32400
S182        S  0.30392620  0.02306335  0.36008480    -0.32400
H183        H  0.28463476  0.05194411  0.36394962     0.29000
H184        H  0.01156375  0.14961465  0.28900260     0.29000
H185        H  0.42296511  0.18273001  0.32033316     0.19600
H186        H  0.37233411  0.01246616  0.33033230     0.19600
C187        C  0.42314232  0.34665967  0.30825150    -0.06300
C188        C  0.44998127  0.34512177  0.33083886    -0.17400
C189        C  0.43451151  0.30279582  0.34599951     0.10900
C190        C  0.38878766  0.26166504  0.34005653    -0.06200
C191        C  0.36469674  0.26239313  0.31567727    -0.17400
C192        C  0.38059270  0.30417915  0.30013672     0.11000
S193        S  0.47644545  0.30096695  0.37004518    -0.32400
S194        S  0.34348953  0.30108558  0.27098044    -0.32400
H195        H  0.34974705  0.34624894  0.27590333     0.29000
H196        H  0.51290957  0.34946118  0.36843474     0.29000
H197        H  0.48431890  0.37679912  0.33575592     0.19600
H198        H  0.33210537  0.23061750  0.30891430     0.19600
C199        C  0.23713785  0.12432290  0.34580673    -0.06300
C200        C  0.20642406  0.07444431  0.34598204    -0.17400
C201        C  0.16352487  0.05191476  0.33046996     0.10900
C202        C  0.15088670  0.07981874  0.31432606    -0.06200
C203        C  0.18084444  0.12958851  0.31460824    -0.17400
C204        C  0.22283875  0.15222615  0.33083244     0.11000
S205        S  0.13364331  0.48803566  0.32658061    -0.32400
S206        S  0.25196226  0.21617764  0.33426533    -0.32400
H207        H  0.27707390  0.22111037  0.35927828     0.29000
H208        H  0.11558745  0.48404057  0.29915062     0.29000
H209        H  0.21579734  0.05280421  0.35832399     0.19600
H210        H  0.17036815  0.15110082  0.30292213     0.19600
C211        C  0.33209230  0.16665418  0.84704230     0.45300
H212        H  0.32905960  0.16446763  0.82374362    -0.03700
C213        C  0.33790677  0.16911470  0.90156408     0.45400
H214        H  0.34155368  0.17150091  0.92453642    -0.03700
C215        C  0.36455788  0.21787690  0.85890396    -0.17400
C216        C  0.28305806  0.14596765  0.86205245    -0.17200
C217        C  0.35341588  0.13810882  0.85857305    -0.17500
C218        C  0.36549794  0.21914411  0.88806459    -0.17500
C219        C  0.28546679  0.14648682  0.89123224    -0.17100
C220        C  0.35804081  0.14061628  0.88728478    -0.17400
C221        C  0.15837255  0.33738812  0.65181001     0.45300
H222        H  0.15744931  0.33820621  0.67510603    -0.03700
C223        C  0.16360953  0.33892201  0.59708177     0.45400
H224        H  0.16554643  0.34001732  0.57385522    -0.03700
C225        C  0.20996336  0.36199395  0.64104956    -0.17400
C226        C  0.13255620  0.28686247  0.63842460    -0.17200
C227        C  0.13665064  0.36394858  0.63726137    -0.17500
C228        C  0.21283110  0.36260282  0.61233170    -0.17500
C229        C  0.13505328  0.28796533  0.60917711    -0.17100
C230        C  0.13826453  0.36388120  0.60833161    -0.17400
O231        O  0.40502550  0.49063986  0.53687551    -0.78600
C232        C  0.04562215  0.11133307  0.54523640     0.82400
O233        O  0.46412322  0.03711422  0.94139360    -0.79800
O234        O  0.11005699  0.06520456  0.98357147    -0.81200
O235        O  0.00426983  0.42207110  0.53746545    -0.81000
O236        O  0.40300827  0.42238001  0.53968754    -0.79700
Zn237      Zn  0.46031859  0.03430275  0.51208163     1.55700
O238        O  0.07320985  0.49227996  0.53964309    -0.81100
Cd239      Cd  0.45922075  0.43567380  0.51392605     1.59700
Cd240      Cd  0.49749895  0.00369808  0.95783863     1.59600
O241        O  0.43364646  0.38887936  0.98076153    -0.81100
O242        O  0.49401173  0.00335379  0.49974270    -1.91600
Cd243      Cd  0.06027248  0.03684097  0.51563807     1.57300
O244        O  0.46179867  0.43369284  0.94200121    -0.81000
O245        O  0.07163289  0.09372055  0.54027968    -0.79700
C246        C  0.44088522  0.05382309  0.95306883     0.82900
C247        C  0.38662987  0.44865275  0.54657019     0.82500
O248        O  0.00324103  0.09269720  0.53539722    -0.78600
C249        C  0.04755947  0.44802464  0.54578394     0.83300
O250        O  0.43628699  0.05419755  0.97966127    -0.78700
C251        C  0.43817535  0.39303829  0.95408951     0.83500
C252        C  0.10789188  0.06446598  0.95673919     0.83800
O253        O  0.06792911  0.04214614  0.94351835    -0.81100
O254        O  0.01341843  0.09245806  0.71142350    -0.78600
C255        C  0.38723012  0.45034871  0.70530376     0.82400
O256        O  0.45994070  0.03303399  0.80685685    -0.79800
O257        O  0.44285878  0.38865102  0.76512489    -0.81200
O258        O  0.08058275  0.49167088  0.71382504    -0.81000
O259        O  0.08222910  0.09377912  0.70925678    -0.79700
Zn260      Zn  0.46823625  0.03715702  0.73551566     1.55700
O261        O  0.00789430  0.42740266  0.70768485    -0.81100
Cd262      Cd  0.06682747  0.03735809  0.73570027     1.59700
Cd263      Cd  0.49669746  0.00082638  0.79145005     1.59600
O264        O  0.11382422  0.06363224  0.76922242    -0.81100
O265        O  0.49890063  0.00407190  0.74923142    -1.91600
Cd266      Cd  0.46433917  0.43862921  0.73367420     1.59900
O267        O  0.06720370  0.03656132  0.80749740    -0.81000
O268        O  0.40388089  0.42400656  0.71145339    -0.79700
C269        C  0.44455275  0.05686486  0.79416157     0.82900
C270        C  0.05633387  0.11080354  0.70253663     0.82500
O271        O  0.40845390  0.49381903  0.71311258    -0.78600
C272        C  0.05306969  0.44993610  0.70379083     0.83300
O273        O  0.44732894  0.06209163  0.76753377    -0.78700
C274        C  0.10849288  0.05907908  0.79581179     0.83500
C275        C  0.44467402  0.39077695  0.79188400     0.83800
O276        O  0.46354629  0.43047307  0.80511709    -0.81100
C277        C  0.06650807  0.15604071  0.56157819    -0.06300
C278        C  0.11250921  0.19299644  0.55410368    -0.17400
C279        C  0.13501512  0.23715438  0.56791580     0.10900
C280        C  0.11126435  0.24442332  0.59065718    -0.06200
C281        C  0.06386069  0.20796067  0.59699563    -0.17400
C282        C  0.04168883  0.16375773  0.58318204     0.11000
S283        S  0.19365666  0.28251373  0.55553011    -0.32400
S284        S  0.98305388  0.11806912  0.59527620    -0.32400
H285        H  0.98993113  0.07973026  0.59072481     0.29000
H286        H  0.20011672  0.25522629  0.53520907     0.29000
H287        H  0.13061558  0.18721058  0.53689488     0.19600
H288        H  0.04451482  0.21330035  0.61366800     0.19600
C289        C  0.34500437  0.42940625  0.56597311    -0.06300
C290        C  0.32708408  0.38372310  0.57763462    -0.17400
C291        C  0.28533246  0.36159499  0.59391746     0.10900
C292        C  0.25915675  0.38449110  0.59733573    -0.06200
C293        C  0.27947647  0.43159733  0.58833517    -0.17400
C294        C  0.32195764  0.45456080  0.57301196     0.11000
S295        S  0.26934937  0.30543251  0.61022969    -0.32400
S296        S  0.34436226  0.51596975  0.56399122    -0.32400
H297        H  0.38902427  0.03285803  0.57546968     0.29000
H298        H  0.22242534  0.29085034  0.61819147     0.29000
H299        H  0.34562482  0.36481393  0.57408540     0.19600
H300        H  0.26279608  0.45142866  0.59415262     0.19600
C301        C  0.11445866  0.38296214  0.58992243    -0.06300
C302        C  0.06639823  0.36849084  0.59551659    -0.17400
C303        C  0.04422497  0.39031970  0.58256185     0.10900
C304        C  0.06945047  0.42575636  0.56195730    -0.06200
C305        C  0.11599479  0.43783600  0.55475126    -0.17400
C306        C  0.13842030  0.41641596  0.56798992     0.11000
S307        S  0.98472627  0.37290079  0.59431259    -0.32400
S308        S  0.19592994  0.43075498  0.55479474    -0.32400
H309        H  0.20693745  0.47233048  0.53994866     0.29000
H310        H  0.99176607  0.41886514  0.59215415     0.29000
H311        H  0.04588855  0.34018116  0.61041419     0.19600
H312        H  0.13429180  0.46318540  0.53789171     0.19600
C313        C  0.11334133  0.24197649  0.65570937    -0.06300
C314        C  0.12522151  0.20794592  0.64775100    -0.17400
C315        C  0.10683371  0.16447137  0.66203193     0.10900
C316        C  0.07678421  0.15479561  0.68554430    -0.06200
C317        C  0.06646561  0.18909160  0.69423431    -0.17400
C318        C  0.08486118  0.23256793  0.68018431     0.11000
S319        S  0.12141535  0.12233400  0.64844967    -0.32400
S320        S  0.07005300  0.27390821  0.69447892    -0.32400
H321        H  0.05518410  0.25321286  0.72131724     0.29000
H322        H  0.07630889  0.08158578  0.65434856     0.29000
H323        H  0.14879844  0.21496969  0.63003040     0.19600
H324        H  0.04397464  0.18182009  0.71257097     0.19600
C325        C  0.25307185  0.38473501  0.65981986    -0.06300
C326        C  0.28675550  0.43368117  0.65663821    -0.17400
C327        C  0.33129522  0.45590240  0.67042151     0.10900
C328        C  0.34141259  0.42919132  0.68943727    -0.06200
C329        C  0.30683479  0.38065759  0.69360526    -0.17400
C330        C  0.26299345  0.35812717  0.67896714     0.11000
S331        S  0.37573478  0.51715497  0.66176685    -0.32400
S332        S  0.22127846  0.29520746  0.68426073    -0.32400
H333        H  0.24784664  0.28790676  0.70484465     0.29000
H334        H  0.35124017  0.52144304  0.63861465     0.29000
H335        H  0.27860474  0.45441824  0.64268348     0.19600
H336        H  0.31443279  0.36022831  0.70830605     0.19600
C337        C  0.11617401  0.38754902  0.65356126    -0.06300
C338        C  0.06935270  0.35913821  0.66367244    -0.17400
C339        C  0.04893483  0.37756751  0.68132874     0.10900
C340        C  0.07422875  0.42723384  0.68709801    -0.06200
C341        C  0.12090954  0.45613426  0.67618407    -0.17400
C342        C  0.14225471  0.43686750  0.65973093     0.11000
S343        S  0.99221495  0.33471486  0.69713507    -0.32400
S344        S  0.20291156  0.47729459  0.64794412    -0.32400
H345        H  0.20086714  0.45254369  0.62348740     0.29000
H346        H  0.00669223  0.35364168  0.72446578     0.29000
H347        H  0.04848360  0.32176699  0.65794716     0.19600
H348        H  0.14107122  0.49418273  0.68038272     0.19600
C349        C  0.38112471  0.11894267  0.90328504    -0.06300
C350        C  0.35135270  0.07927621  0.92007752    -0.17400
C351        C  0.36965182  0.05722924  0.93654021     0.10900
C352        C  0.41903170  0.07385302  0.93527350    -0.06200
C353        C  0.44867907  0.11138898  0.91709971    -0.17400
C354        C  0.43063358  0.13447812  0.90121837     0.11000
S355        S  0.32790095  0.00733812  0.95804780    -0.32400
S356        S  0.47371525  0.18293600  0.87928385    -0.32400
H357        H  0.44471457  0.20042503  0.87101105     0.29000
H358        H  0.35205615  0.98236641  0.95630528     0.29000
H359        H  0.31294222  0.06369307  0.91922540     0.19600
H360        H  0.48661060  0.12372086  0.91588601     0.19600
C361        C  0.41723803  0.34871808  0.93721446    -0.06300
C362        C  0.42565147  0.31325795  0.94647513    -0.17400
C363        C  0.41034838  0.27161462  0.93093506     0.10900
C364        C  0.38380763  0.26354169  0.90562905    -0.06200
C365        C  0.37323141  0.29826778  0.89723040    -0.17400
C366        C  0.39028349  0.34088656  0.91235444     0.11000
S367        S  0.42997127  0.23305732  0.94389682    -0.32400
S368        S  0.37519510  0.38297499  0.89925866    -0.32400
H369        H  0.37144927  0.39953408  0.92587658     0.29000
H370        H  0.43931346  0.22301995  0.91700112     0.29000
H371        H  0.44652913  0.31910740  0.96548838     0.19600
H372        H  0.35145537  0.29230457  0.87867347     0.19600
C373        C  0.15365588  0.08904187  0.94086980    -0.06300
C374        C  0.19185599  0.08566759  0.95119204    -0.17400
C375        C  0.23580799  0.10570293  0.93694866     0.10900
C376        C  0.24215973  0.12941969  0.91062347    -0.06200
C377        C  0.20485553  0.13666003  0.90220779    -0.17400
C378        C  0.16094018  0.11639245  0.91649449     0.11000
S379        S  0.28203513  0.10195753  0.95520151    -0.32400
S380        S  0.11667586  0.12862807  0.90312904    -0.32400
H381        H  0.09930863  0.13133675  0.92971661     0.29000
H382        H  0.25160438  0.05972018  0.97020403     0.29000
H383        H  0.18714639  0.06692757  0.97083025     0.19600
H384        H  0.20990149  0.15942876  0.88466696     0.19600
C385        C  0.37190955  0.11445569  0.83996251    -0.06300
C386        C  0.40832835  0.14312926  0.82070282    -0.17400
C387        C  0.43353075  0.12581166  0.80618982     0.10900
C388        C  0.42158419  0.07817539  0.81039756    -0.06200
C389        C  0.38354911  0.04876095  0.82850486    -0.17400
C390        C  0.35778750  0.06580625  0.84266270     0.11000
S391        S  0.98166674  0.16687831  0.78361510    -0.32400
S392        S  0.30523156  0.02222941  0.86175728    -0.32400
H393        H  0.28583601  0.05083532  0.86648456     0.29000
H394        H  0.01129501  0.14847738  0.78913164     0.29000
H395        H  0.41915698  0.18024339  0.81815277     0.19600
H396        H  0.37256111  0.01156173  0.83078487     0.19600
C397        C  0.42493164  0.34573618  0.80791993    -0.06300
C398        C  0.45184869  0.34378025  0.83035470    -0.17400
C399        C  0.43570229  0.30146632  0.84569034     0.10900
C400        C  0.38952120  0.26094395  0.83995771    -0.06200
C401        C  0.36526006  0.26197964  0.81575462    -0.17400
C402        C  0.38180292  0.30365474  0.80003380     0.11000
S403        S  0.47677217  0.29879743  0.87008748    -0.32400
S404        S  0.34473082  0.30098258  0.77097283    -0.32400
H405        H  0.35151880  0.34634875  0.77594087     0.29000
H406        H  0.51328694  0.34732159  0.86892550     0.29000
H407        H  0.48653742  0.37511233  0.83512071     0.19600
H408        H  0.33199501  0.23061186  0.80933124     0.19600
C409        C  0.23765922  0.12462006  0.84546916    -0.06300
C410        C  0.20848457  0.07466735  0.84405398    -0.17400
C411        C  0.16610664  0.05228103  0.82807300     0.10900
C412        C  0.15205732  0.08038797  0.81338070    -0.06200
C413        C  0.18080221  0.13021258  0.81491219    -0.17400
C414        C  0.22279623  0.15268933  0.83118056     0.11000
S415        S  0.13103476  0.48699375  0.82787620    -0.32400
S416        S  0.25175872  0.21659141  0.83513618    -0.32400
H417        H  0.27792629  0.22138611  0.85966316     0.29000
H418        H  0.11232011  0.48212416  0.80055254     0.29000
H419        H  0.21886277  0.05284288  0.85533051     0.19600
H420        H  0.16958612  0.15179625  0.80399735     0.19600
C421        C  0.33188851  0.66705941  0.34737606     0.45300
H422        H  0.32858804  0.66498257  0.32408252    -0.03700
C423        C  0.33828814  0.66937215  0.40187749     0.45400
H424        H  0.34239830  0.67185905  0.42482409    -0.03700
C425        C  0.36443885  0.71817599  0.35922758    -0.17400
C426        C  0.28308838  0.64637027  0.36258562    -0.17200
C427        C  0.35327882  0.63847318  0.35868053    -0.17500
C428        C  0.36575346  0.71935800  0.38836074    -0.17500
C429        C  0.28573498  0.64681299  0.39176349    -0.17100
C430        C  0.35817962  0.64084753  0.38738975    -0.17400
C431        C  0.15860466  0.83820545  0.15232110     0.45300
H432        H  0.15767629  0.83907150  0.17561930    -0.03700
C433        C  0.16374567  0.83949706  0.09760108     0.45400
H434        H  0.16562007  0.84019707  0.07437223    -0.03700
C435        C  0.21024463  0.86331105  0.14151993    -0.17400
C436        C  0.13323715  0.78763914  0.13904280    -0.17200
C437        C  0.13619455  0.86410135  0.13772470    -0.17500
C438        C  0.21307918  0.86384300  0.11279846    -0.17500
C439        C  0.13566513  0.78860765  0.10982416    -0.17100
C440        C  0.13784455  0.86402730  0.10875816    -0.17400
O441        O  0.40556787  0.99213099  0.03718389    -0.78600
C442        C  0.04561636  0.61194886  0.04581673     0.82400
O443        O  0.46323384  0.53591775  0.44115110    -0.79800
O444        O  0.11015096  0.56517973  0.48396106    -0.81200
O445        O  0.00306961  0.92145406  0.03718311    -0.81000
O446        O  0.40333978  0.92377210  0.04001893    -0.79700
Zn447      Zn  0.46090954  0.53447887  0.01250221     1.55700
O448        O  0.07253815  0.99119859  0.03903230    -0.81100
Cd449      Cd  0.45936170  0.93670012  0.01403559     1.59700
Cd450      Cd  0.49676150  0.50274608  0.45772600     1.59600
O451        O  0.43367688  0.88883580  0.48102031    -0.81100
O452        O  0.49431448  0.50327219  0.99997412    -1.91600
Cd453      Cd  0.05998216  0.53734409  0.01601599     1.57300
O454        O  0.46143469  0.93338069  0.44212509    -0.81000
O455        O  0.07151722  0.59422645  0.04078908    -0.79700
C456        C  0.43987578  0.55249679  0.45281104     0.82900
C457        C  0.38705943  0.95014528  0.04691205     0.82500
O458        O  0.00319223  0.59336650  0.03603988    -0.78600
C459        C  0.04651057  0.94702949  0.04534172     0.83300
O460        O  0.43521965  0.55274646  0.47940357    -0.78700
C461        C  0.43805146  0.89283721  0.45434989     0.83500
C462        C  0.10800392  0.56389393  0.45713757     0.83800
O463        O  0.06805275  0.54125335  0.44391642    -0.81100
O464        O  0.01437735  0.59339620  0.21215916    -0.78600
C465        C  0.38766742  0.95141535  0.20568859     0.82400
O466        O  0.46027112  0.53491246  0.30657318    -0.79800
O467        O  0.44235342  0.88887951  0.26559325    -0.81200
O468        O  0.08000986  0.99120263  0.21479308    -0.81000
O469        O  0.08306730  0.59451861  0.20981660    -0.79700
Zn470      Zn  0.46840003  0.53842294  0.23530508     1.55700
O471        O  0.00727870  0.92689768  0.20884917    -0.81100
Cd472      Cd  0.06748235  0.53781671  0.23609417     1.59700
Cd473      Cd  0.49659755  0.50221199  0.29150751     1.59600
O474        O  0.11439238  0.56380211  0.26963048    -0.81100
O475        O  0.49865098  0.50509705  0.24929456    -1.91600
Cd476      Cd  0.46434144  0.93885694  0.23407411     1.59900
O477        O  0.06776225  0.53635946  0.30789535    -0.81000
O478        O  0.40415184  0.92489285  0.21176623    -0.79700
C479        C  0.44477243  0.55852237  0.29374069     0.82900
C480        C  0.05723746  0.61166900  0.20320106     0.82500
O481        O  0.40898191  0.99482673  0.21361736    -0.78600
C482        C  0.05245346  0.94933133  0.20492993     0.83300
O483        O  0.44740198  0.56343790  0.26710508    -0.78700
C484        C  0.10901418  0.55902458  0.29620791     0.83500
C485        C  0.44429389  0.89110318  0.29235641     0.83800
O486        O  0.46352710  0.93083071  0.30556586    -0.81100
C487        C  0.06666337  0.65668745  0.06218990    -0.06300
C488        C  0.11293221  0.69340829  0.05492613    -0.17400
C489        C  0.13551362  0.73756463  0.06874125     0.10900
C490        C  0.11180769  0.74496453  0.09141758    -0.06200
C491        C  0.06425549  0.70874670  0.09763625    -0.17400
C492        C  0.04182805  0.66463749  0.08369558     0.11000
S493        S  0.19465172  0.78243284  0.05683287    -0.32400
S494        S  0.98283279  0.61935332  0.09552510    -0.32400
H495        H  0.98935859  0.58074135  0.09119925     0.29000
H496        H  0.19456253  0.76034655  0.03143287     0.29000
H497        H  0.13140850  0.68738536  0.03803290     0.19600
H498        H  0.04493699  0.71424223  0.11425805     0.19600
C499        C  0.34542017  0.93100413  0.06636586    -0.06300
C500        C  0.32795704  0.88568399  0.07843591    -0.17400
C501        C  0.28620305  0.86353215  0.09473572     0.10900
C502        C  0.25947051  0.88593647  0.09775998    -0.06200
C503        C  0.27939411  0.93283841  0.08841270    -0.17400
C504        C  0.32192173  0.95586826  0.07307133     0.11000
S505        S  0.27102205  0.80806132  0.11167035    -0.32400
S506        S  0.34383167  0.01699454  0.06358723    -0.32400
H507        H  0.38981808  0.53262218  0.07618062     0.29000
H508        H  0.22360673  0.79260993  0.11897977     0.29000
H509        H  0.34689491  0.86708738  0.07521101     0.19600
H510        H  0.26237283  0.95246495  0.09398913     0.19600
C511        C  0.11376062  0.88272703  0.09018046    -0.06300
C512        C  0.06568487  0.86829945  0.09576725    -0.17400
C513        C  0.04319926  0.88953366  0.08241269     0.10900
C514        C  0.06821349  0.92450439  0.06153019    -0.06200
C515        C  0.11464760  0.93630232  0.05426304    -0.17400
C516        C  0.13721208  0.91514964  0.06769024     0.11000
S517        S  0.98360690  0.87201154  0.09402822    -0.32400
S518        S  0.19476807  0.92935994  0.05455708    -0.32400
H519        H  0.19746303  0.95715223  0.03129441     0.29000
H520        H  0.99051514  0.91790312  0.09170818     0.29000
H521        H  0.04529865  0.84032615  0.11085352     0.19600
H522        H  0.13294939  0.96167643  0.03742506     0.19600
C523        C  0.11411333  0.74281041  0.15635291    -0.06300
C524        C  0.12619320  0.70889794  0.14847123    -0.17400
C525        C  0.10768790  0.66535468  0.16268800     0.10900
C526        C  0.07762366  0.65565254  0.18619582    -0.06200
C527        C  0.06712018  0.68986015  0.19482064    -0.17400
C528        C  0.08497555  0.73307156  0.18054639     0.11000
S529        S  0.12218228  0.62318620  0.14905166    -0.32400
S530        S  0.06995704  0.77433667  0.19470503    -0.32400
H531        H  0.03102380  0.74190344  0.21155909     0.29000
H532        H  0.07700963  0.58248320  0.15489345     0.29000
H533        H  0.14994613  0.71604101  0.13082478     0.19600
H534        H  0.04539082  0.68297356  0.21347269     0.19600
C535        C  0.25342405  0.88611324  0.16026774    -0.06300
C536        C  0.28725544  0.93502661  0.15699433    -0.17400
C537        C  0.33174285  0.95725912  0.17087373     0.10900
C538        C  0.34185134  0.93045835  0.18983027    -0.06200
C539        C  0.30721041  0.88196935  0.19401029    -0.17400
C540        C  0.26329615  0.85952980  0.17947255     0.11000
S541        S  0.37612151  0.01865930  0.16247261    -0.32400
S542        S  0.22153487  0.79667295  0.18491887    -0.32400
H543        H  0.24734198  0.78979191  0.20621550     0.29000
H544        H  0.35081250  0.02393203  0.14015576     0.29000
H545        H  0.27924199  0.95570366  0.14289758     0.19600
H546        H  0.31480768  0.86148395  0.20866695     0.19600
C547        C  0.11541725  0.88734675  0.15412196    -0.06300
C548        C  0.06836676  0.85891177  0.16393038    -0.17400
C549        C  0.04788667  0.87710230  0.18176231     0.10900
C550        C  0.07359938  0.92654763  0.18825000    -0.06200
C551        C  0.12070645  0.95533279  0.17789408    -0.17400
C552        C  0.14190258  0.93629162  0.16112829     0.11000
S553        S  0.99041265  0.83418398  0.19674724    -0.32400
S554        S  0.20292686  0.97640103  0.14990912    -0.32400
H555        H  0.19952029  0.95387420  0.12421171     0.29000
H556        H  0.00423869  0.85173048  0.22438881     0.29000
H557        H  0.04741450  0.82166979  0.15790590     0.19600
H558        H  0.14129166  0.99317180  0.18268278     0.19600
C559        C  0.38098731  0.61878037  0.40327524    -0.06300
C560        C  0.35110760  0.57963248  0.42039531    -0.17400
C561        C  0.36905977  0.55706410  0.43667628     0.10900
C562        C  0.41819596  0.57275920  0.43502287    -0.06200
C563        C  0.44788641  0.60982187  0.41657279    -0.17400
C564        C  0.43019986  0.63337567  0.40081451     0.11000
S565        S  0.32712451  0.50759813  0.45837714    -0.32400
S566        S  0.47334271  0.68124895  0.37856908    -0.32400
H567        H  0.44501212  0.69970596  0.37065254     0.29000
H568        H  0.35043999  0.48184241  0.45631024     0.29000
H569        H  0.31278774  0.56473935  0.41986132     0.19600
H570        H  0.48562552  0.62148455  0.41507381     0.19600
C571        C  0.41717832  0.84850399  0.43759196    -0.06300
C572        C  0.42670613  0.81362275  0.44647954    -0.17400
C573        C  0.41147637  0.77206241  0.43087744     0.10900
C574        C  0.38410304  0.76365746  0.40590737    -0.06200
C575        C  0.37252839  0.79780818  0.39788664    -0.17400
C576        C  0.38924541  0.84021249  0.41313075     0.11000
S577        S  0.43203288  0.73395013  0.44329359    -0.32400
S578        S  0.37240124  0.88138699  0.40077587    -0.32400
H579        H  0.36950215  0.89783206  0.42761335     0.29000
H580        H  0.44008708  0.72328702  0.41623212     0.29000
H581        H  0.44829191  0.81986011  0.46522243     0.19600
H582        H  0.35014174  0.79150013  0.37957798     0.19600
C583        C  0.15378046  0.58847013  0.44129960    -0.06300
C584        C  0.19221132  0.58559615  0.45177033    -0.17400
C585        C  0.23636439  0.60615607  0.43766239     0.10900
C586        C  0.24252048  0.62964307  0.41126088    -0.06200
C587        C  0.20499077  0.63648825  0.40280200    -0.17400
C588        C  0.16096612  0.61579933  0.41694812     0.11000
S589        S  0.28316306  0.60377449  0.45623985    -0.32400
S590        S  0.11641973  0.62752314  0.40344182    -0.32400
H591        H  0.09895905  0.63030221  0.42998321     0.29000
H592        H  0.25344291  0.56290471  0.47249090     0.29000
H593        H  0.18753711  0.56698338  0.47144984     0.19600
H594        H  0.20993423  0.65932707  0.38534251     0.19600
C595        C  0.37154205  0.61498786  0.33980965    -0.06300
C596        C  0.40681233  0.64358779  0.31994868    -0.17400
C597        C  0.43202219  0.62662409  0.30511762     0.10900
C598        C  0.42150403  0.57956358  0.30985865    -0.06200
C599        C  0.38446057  0.55015354  0.32851115    -0.17400
C600        C  0.35839229  0.56667727  0.34276854     0.11000
S601        S  0.98736764  0.66964629  0.28739898    -0.32400
S602        S  0.30657146  0.52277686  0.36224066    -0.32400
H603        H  0.28635254  0.55069475  0.36681399     0.29000
H604        H  0.01525318  0.64906839  0.29215531     0.29000
H605        H  0.41675902  0.68040363  0.31712712     0.19600
H606        H  0.37438185  0.51325890  0.33110958     0.19600
C607        C  0.42437741  0.84614462  0.30844732    -0.06300
C608        C  0.45160927  0.84394340  0.33060618    -0.17400
C609        C  0.43544678  0.80159904  0.34588950     0.10900
C610        C  0.38907007  0.76129125  0.34034782    -0.06200
C611        C  0.36434136  0.76258303  0.31644849    -0.17400
C612        C  0.38081524  0.80434012  0.30082399     0.11000
S613        S  0.47677513  0.79848832  0.36984795    -0.32400
S614        S  0.34319934  0.80217172  0.27222522    -0.32400
H615        H  0.35113213  0.84799244  0.27717447     0.29000
H616        H  0.51273912  0.84725164  0.36936821     0.29000
H617        H  0.48657340  0.87506149  0.33515008     0.19600
H618        H  0.33085449  0.73133290  0.31018527     0.19600
C619        C  0.23767822  0.62489474  0.34609009    -0.06300
C620        C  0.20907355  0.57494383  0.34437149    -0.17400
C621        C  0.16686212  0.55241812  0.32827663     0.10900
C622        C  0.15246063  0.58040564  0.31379306    -0.06200
C623        C  0.18060476  0.63022010  0.31564955    -0.17400
C624        C  0.22246473  0.65283159  0.33199412     0.11000
S625        S  0.12705615  0.98758571  0.33178608    -0.32400
S626        S  0.25075133  0.71662159  0.33628368    -0.32400
H627        H  0.27758168  0.72151506  0.36051322     0.29000
H628        H  0.10860622  0.98098618  0.30427135     0.29000
H629        H  0.21980430  0.55324931  0.35547048     0.19600
H630        H  0.16903642  0.65165933  0.30490636     0.19600
C631        C  0.33143005  0.66645111  0.84710865     0.45300
H632        H  0.32823713  0.66421925  0.82381163    -0.03700
C633        C  0.33771970  0.66923071  0.90161866     0.45400
H634        H  0.34153841  0.67174762  0.92457620    -0.03700
C635        C  0.36376469  0.71774178  0.85886001    -0.17400
C636        C  0.28247584  0.64559018  0.86225879    -0.17200
C637        C  0.35316191  0.63823369  0.85860019    -0.17500
C638        C  0.36505610  0.71921984  0.88801948    -0.17500
C639        C  0.28514122  0.64632204  0.89143466    -0.17100
C640        C  0.35796274  0.64082830  0.88731218    -0.17400
C641        C  0.15855386  0.83767563  0.65174423     0.45300
H642        H  0.15763915  0.83853205  0.67503944    -0.03700
C643        C  0.16387363  0.83914546  0.59701588     0.45400
H644        H  0.16585575  0.84008421  0.57377987    -0.03700
C645        C  0.21013952  0.86226969  0.64098144    -0.17400
C646        C  0.13272265  0.78715069  0.63839877    -0.17200
C647        C  0.13676666  0.86413387  0.63714850    -0.17500
C648        C  0.21307181  0.86287270  0.61227907    -0.17500
C649        C  0.13527483  0.78825602  0.60916833    -0.17100
C650        C  0.13845764  0.86406650  0.60820948    -0.17400
O651        O  0.40497904  0.99112200  0.53659366    -0.78600
C652        C  0.04486614  0.61169590  0.54532161     0.82400
O653        O  0.46399770  0.53692773  0.94130688    -0.79800
O654        O  0.10988828  0.56518311  0.98395024    -0.81200
O655        O  0.00343481  0.92121168  0.53713531    -0.81000
O656        O  0.40392555  0.92342860  0.54012184    -0.79700
Zn657      Zn  0.46025080  0.53388817  0.51232520     1.55700
O658        O  0.07268821  0.99113980  0.53914143    -0.81100
Cd659      Cd  0.45965426  0.93643975  0.51400080     1.59700
Cd660      Cd  0.49743285  0.50345177  0.95774860     1.59600
O661        O  0.43366780  0.88914656  0.98082579    -0.81100
O662        O  0.49374879  0.50278986  0.49989243    -1.91600
Cd663      Cd  0.06022658  0.53745293  0.51596843     1.57300
O664        O  0.46195303  0.93396484  0.94209397    -0.81000
O665        O  0.07107583  0.59430385  0.54036746    -0.79700
C666        C  0.44073463  0.55359048  0.95301334     0.82900
C667        C  0.38708598  0.94943875  0.54666851     0.82500
O668        O  0.00236198  0.59270805  0.53561212    -0.78600
C669        C  0.04680156  0.94692933  0.54535877     0.83300
O670        O  0.43614842  0.55381928  0.97961666    -0.78700
C671        C  0.43832240  0.89329430  0.95415112     0.83500
C672        C  0.10767446  0.56428400  0.95712382     0.83800
O673        O  0.06766143  0.54197714  0.94394452    -0.81100
O674        O  0.01310271  0.59245565  0.71115086    -0.78600
C675        C  0.38756866  0.95032798  0.70489353     0.82400
O676        O  0.46016357  0.53349068  0.80702015    -0.79800
O677        O  0.44197157  0.88805289  0.76485612    -0.81200
O678        O  0.08055092  0.99113658  0.71417483    -0.81000
O679        O  0.08226647  0.59437897  0.70949112    -0.79700
Zn680      Zn  0.46821160  0.53752364  0.73563922     1.55700
O681        O  0.00785500  0.92686822  0.70812847    -0.81100
Cd682      Cd  0.06675091  0.53758415  0.73566384     1.59700
Cd683      Cd  0.49700226  0.50133850  0.79161028     1.59600
O684        O  0.11343920  0.56315016  0.76939149    -0.81100
O685        O  0.49901399  0.50455466  0.74937522    -1.91600
Cd686      Cd  0.46426734  0.93820687  0.73343233     1.59900
O687        O  0.06649521  0.53553182  0.80750862    -0.81000
O688        O  0.40421453  0.92395414  0.71095309    -0.79700
C689        C  0.44482721  0.55739038  0.79434299     0.82900
C690        C  0.05619947  0.61110605  0.70253097     0.82500
O691        O  0.40869458  0.99370383  0.71285325    -0.78600
C692        C  0.05302541  0.94934649  0.70422079     0.83300
O693        O  0.44759030  0.56265282  0.76771428    -0.78700
C694        C  0.10788209  0.55813571  0.79595979     0.83500
C695        C  0.44370574  0.89025897  0.79161811     0.83800
O696        O  0.46281158  0.92997495  0.80483279    -0.81100
C697        C  0.06577127  0.65657005  0.56150075    -0.06300
C698        C  0.11218874  0.69304599  0.55430949    -0.17400
C699        C  0.13503622  0.73712685  0.56817904     0.10900
C700        C  0.11121011  0.74480625  0.59066719    -0.06200
C701        C  0.06345597  0.70894181  0.59672546    -0.17400
C702        C  0.04085276  0.66482600  0.58280354     0.11000
S703        S  0.19428302  0.78188005  0.55629248    -0.32400
S704        S  0.98150829  0.61996230  0.59437068    -0.32400
H705        H  0.98787820  0.58114492  0.59056968     0.29000
H706        H  0.20079178  0.75417224  0.53630286     0.29000
H707        H  0.13041486  0.68693385  0.53731144     0.19600
H708        H  0.04414550  0.71469275  0.61323860     0.19600
C709        C  0.34547455  0.93019780  0.56609217    -0.06300
C710        C  0.32801103  0.88480648  0.57806726    -0.17400
C711        C  0.28614038  0.86249817  0.59424474     0.10900
C712        C  0.25947537  0.88495161  0.59732843    -0.06200
C713        C  0.27946926  0.93192893  0.58815456    -0.17400
C714        C  0.32193486  0.95500482  0.57280587     0.11000
S715        S  0.27066135  0.80673554  0.61090108    -0.32400
S716        S  0.34361278  0.01606766  0.56327055    -0.32400
H717        H  0.38956019  0.53196879  0.57627809     0.29000
H718        H  0.22320228  0.79132043  0.61811442     0.29000
H719        H  0.34694957  0.86622109  0.57479831     0.19600
H720        H  0.26253318  0.95156922  0.59385921     0.19600
C721        C  0.11434488  0.88269380  0.58970808    -0.06300
C722        C  0.06607690  0.86761273  0.59512781    -0.17400
C723        C  0.04346148  0.88883055  0.58195301     0.10900
C724        C  0.06863502  0.92450814  0.56145446    -0.06200
C725        C  0.11534566  0.93700770  0.55435250    -0.17400
C726        C  0.13806244  0.91593907  0.56764937     0.11000
S727        S  0.98345073  0.87025576  0.59326825    -0.32400
S728        S  0.19574434  0.93057602  0.55454021    -0.32400
H729        H  0.20383549  0.96773153  0.53624595     0.29000
H730        H  0.98988913  0.91601081  0.59147747     0.29000
H731        H  0.04571352  0.83922662  0.61000461     0.19600
H732        H  0.13359264  0.96256357  0.53758807     0.19600
C733        C  0.11327693  0.74222590  0.65566735    -0.06300
C734        C  0.12493975  0.70805988  0.64766572    -0.17400
C735        C  0.10648789  0.66459726  0.66195733     0.10900
C736        C  0.07662258  0.65507706  0.68553380    -0.06200
C737        C  0.06641698  0.68944567  0.69424260    -0.17400
C738        C  0.08480490  0.73290395  0.68014689     0.11000
S739        S  0.12078337  0.62227602  0.64832892    -0.32400
S740        S  0.07020966  0.77446410  0.69438911    -0.32400
H741        H  0.05124281  0.75178249  0.72034504     0.29000
H742        H  0.07578354  0.58158531  0.65449756     0.29000
H743        H  0.14847742  0.71501189  0.62993232     0.19600
H744        H  0.04408733  0.68222378  0.71264558     0.19600
C745        C  0.25322413  0.88496058  0.65972372    -0.06300
C746        C  0.28681574  0.93394019  0.65660999    -0.17400
C747        C  0.33141543  0.95614160  0.67031651     0.10900
C748        C  0.34177350  0.92925384  0.68904519    -0.06200
C749        C  0.30734338  0.88064080  0.69307260    -0.17400
C750        C  0.26339854  0.85819060  0.67857404     0.11000
S751        S  0.37559573  0.01762425  0.66195585    -0.32400
S752        S  0.22175891  0.79522077  0.68375744    -0.32400
H753        H  0.25088569  0.78668554  0.70164038     0.29000
H754        H  0.35014570  0.02283077  0.63969586     0.29000
H755        H  0.27856514  0.95467081  0.64271203     0.19600
H756        H  0.31504205  0.86012529  0.70764565     0.19600
C757        C  0.11606070  0.88748997  0.65345691    -0.06300
C758        C  0.06907318  0.85901772  0.66332024    -0.17400
C759        C  0.04863549  0.87718721  0.68117782     0.10900
C760        C  0.07418903  0.92668347  0.68748010    -0.06200
C761        C  0.12112642  0.95559152  0.67691399    -0.17400
C762        C  0.14239107  0.93655502  0.66020894     0.11000
S763        S  0.99153304  0.83418358  0.69652232    -0.32400
S764        S  0.20326772  0.97687313  0.64878579    -0.32400
H765        H  0.20046435  0.95343080  0.62357688     0.29000
H766        H  0.00568595  0.85222401  0.72404870     0.29000
H767        H  0.04818116  0.82174224  0.65736684     0.19600
H768        H  0.14153815  0.99349620  0.68153247     0.19600
C769        C  0.38105766  0.61908610  0.90330246    -0.06300
C770        C  0.35129014  0.57952201  0.92017342    -0.17400
C771        C  0.36954670  0.55737067  0.93660678     0.10900
C772        C  0.41888286  0.57375775  0.93525213    -0.06200
C773        C  0.44850411  0.61120400  0.91701317    -0.17400
C774        C  0.43052127  0.63441139  0.90116805     0.11000
S775        S  0.32776758  0.50762192  0.95818388    -0.32400
S776        S  0.47367568  0.68281433  0.87924189    -0.32400
H777        H  0.44463577  0.70021093  0.87090778     0.29000
H778        H  0.35168617  0.48242915  0.95633968     0.29000
H779        H  0.31289603  0.56411815  0.91942666     0.19600
H780        H  0.48639488  0.62339481  0.91572526     0.19600
C781        C  0.41743115  0.84900440  0.93720216    -0.06300
C782        C  0.42569301  0.81342186  0.94642348    -0.17400
C783        C  0.41037703  0.77182359  0.93080711     0.10900
C784        C  0.38378337  0.76379875  0.90551978    -0.06200
C785        C  0.37348642  0.79872315  0.89711732    -0.17400
C786        C  0.39072746  0.84137897  0.91224917     0.11000
S787        S  0.43007637  0.73326233  0.94364426    -0.32400
S788        S  0.37624073  0.88382906  0.89900941    -0.32400
H789        H  0.37208145  0.90022277  0.92558916     0.29000
H790        H  0.43928795  0.72328986  0.91669741     0.29000
H791        H  0.44648922  0.81915235  0.96545679     0.19600
H792        H  0.35172217  0.79286746  0.87856847     0.19600
C793        C  0.15342717  0.58877522  0.94121704    -0.06300
C794        C  0.19177759  0.58566008  0.95158272    -0.17400
C795        C  0.23576754  0.60581352  0.93732545     0.10900
C796        C  0.24192455  0.62927769  0.91092259    -0.06200
C797        C  0.20448791  0.63630703  0.90250138    -0.17400
C798        C  0.16058932  0.61597078  0.91679523     0.11000
S799        S  0.28236147  0.60267311  0.95560175    -0.32400
S800        S  0.11618366  0.62796502  0.90337969    -0.32400
H801        H  0.09906296  0.63106893  0.92996637     0.29000
H802        H  0.25244517  0.56191903  0.97189065     0.29000
H803        H  0.18713840  0.56706966  0.97126630     0.19600
H804        H  0.20941301  0.65898704  0.88494371     0.19600
C805        C  0.37178098  0.61472772  0.83996415    -0.06300
C806        C  0.40845732  0.64355490  0.82086997    -0.17400
C807        C  0.43392582  0.62637132  0.80650832     0.10900
C808        C  0.42182594  0.57866080  0.81058768    -0.06200
C809        C  0.38352826  0.54910676  0.82850109    -0.17400
C810        C  0.35764912  0.56607518  0.84260023     0.11000
S811        S  0.98187146  0.66754301  0.78346243    -0.32400
S812        S  0.30503071  0.52244919  0.86162780    -0.32400
H813        H  0.28564131  0.55104748  0.86639020     0.29000
H814        H  0.01149116  0.64899752  0.78855308     0.29000
H815        H  0.41934100  0.68069813  0.81840143     0.19600
H816        H  0.37247318  0.51187760  0.83069855     0.19600
C817        C  0.42378893  0.84531589  0.80771644    -0.06300
C818        C  0.45112645  0.84313961  0.82980975    -0.17400
C819        C  0.43497356  0.80087675  0.84517075     0.10900
C820        C  0.38845521  0.76065353  0.83980987    -0.06200
C821        C  0.36368888  0.76182829  0.81588772    -0.17400
C822        C  0.38012773  0.80353832  0.80020151     0.11000
S823        S  0.47620626  0.79794231  0.86929719    -0.32400
S824        S  0.34231273  0.80141746  0.77173364    -0.32400
H825        H  0.35065044  0.84742019  0.77656595     0.29000
H826        H  0.51572016  0.84434003  0.86479666     0.29000
H827        H  0.48603662  0.87432252  0.83436557     0.19600
H828        H  0.33021165  0.73053406  0.80966919     0.19600
C829        C  0.23690018  0.62399459  0.84579492    -0.06300
C830        C  0.20766123  0.57401035  0.84459588    -0.17400
C831        C  0.16520553  0.55143471  0.82865978     0.10900
C832        C  0.15129331  0.57941051  0.81367379    -0.06200
C833        C  0.17997115  0.62923646  0.81511990    -0.17400
C834        C  0.22186316  0.65188098  0.83145644     0.11000
S835        S  0.13220857  0.98787115  0.82677397    -0.32400
S836        S  0.25022365  0.71570724  0.83554423    -0.32400
H837        H  0.27710518  0.72085725  0.85980537     0.29000
H838        H  0.11434236  0.98366315  0.79927189     0.29000
H839        H  0.21801331  0.55230948  0.85603863     0.19600
H840        H  0.16872079  0.65071429  0.80410949     0.19600
C841        C  0.83197022  0.16675992  0.34755152     0.45300
H842        H  0.82878989  0.16458993  0.32425730    -0.03700
C843        C  0.83812107  0.16913832  0.40206498     0.45400
H844        H  0.84197408  0.17156702  0.42502193    -0.03700
C845        C  0.86441317  0.21794428  0.35940275    -0.17400
C846        C  0.78304975  0.14591871  0.36267836    -0.17200
C847        C  0.85345351  0.13833385  0.35897015    -0.17500
C848        C  0.86554391  0.21913865  0.38855633    -0.17500
C849        C  0.78562760  0.14644564  0.39185259    -0.17100
C850        C  0.85822575  0.14073618  0.38767163    -0.17400
C851        C  0.65849089  0.33825964  0.15265767     0.45300
H852        H  0.65718330  0.33903675  0.17594702    -0.03700
C853        C  0.66454672  0.33974909  0.09795988     0.45400
H854        H  0.66687754  0.34072284  0.07473375    -0.03700
C855        C  0.71027324  0.36321100  0.14216266    -0.17400
C856        C  0.63316420  0.28775193  0.13929556    -0.17200
C857        C  0.63653839  0.36438897  0.13784032    -0.17500
C858        C  0.71357945  0.36377598  0.11347191    -0.17500
C859        C  0.63606191  0.28882044  0.11008438    -0.17100
C860        C  0.63863126  0.36436118  0.10890726    -0.17400
O861        O  0.90563631  0.49151280  0.03786634    -0.78600
C862        C  0.54598820  0.11258712  0.04562534     0.82400
O863        O  0.96336807  0.03561363  0.44104559    -0.79800
O864        O  0.60994555  0.06548661  0.48379049    -0.81200
O865        O  0.50383643  0.42137845  0.03707697    -0.81000
O866        O  0.90320694  0.42304067  0.04042662    -0.79700
Zn867      Zn  0.96065652  0.03450841  0.01229562     1.55700
O868        O  0.57305687  0.49130248  0.03928902    -0.81100
Cd869      Cd  0.95878899  0.43606077  0.01402465     1.59700
Cd870      Cd  0.99719005  0.00265755  0.45754798     1.59600
O871        O  0.93396777  0.38864864  0.48125558    -0.81100
O872        O  0.99400030  0.00330289  0.99973000    -1.91600
Cd873      Cd  0.56046288  0.03799751  0.01594461     1.57300
O874        O  0.96153719  0.43329294  0.44239499    -0.81000
O875        O  0.57189669  0.09487162  0.04062941    -0.79700
C876        C  0.94029225  0.05246552  0.45275791     0.82900
C877        C  0.88724162  0.44955835  0.04760200     0.82500
O878        O  0.50359997  0.09401751  0.03578710    -0.78600
C879        C  0.54721715  0.44701642  0.04534397     0.83300
O880        O  0.93591885  0.05298610  0.47935778    -0.78700
C881        C  0.93821126  0.39271696  0.45457788     0.83500
C882        C  0.60790733  0.06413392  0.45696935     0.83800
O883        O  0.56805156  0.04134122  0.44367039    -0.81100
O884        O  0.51401340  0.09337590  0.21216437    -0.78600
C885        C  0.88759584  0.45155999  0.20630081     0.82400
O886        O  0.96003874  0.03386520  0.30726469    -0.79800
O887        O  0.94276739  0.38873623  0.26555854    -0.81200
O888        O  0.58001674  0.49165418  0.21426854    -0.81000
O889        O  0.58299155  0.09499091  0.21028243    -0.79700
Zn890      Zn  0.96820366  0.03786349  0.23596506     1.55700
O891        O  0.50719860  0.42752622  0.20827235    -0.81100
Cd892      Cd  0.56726116  0.03795631  0.23625170     1.59700
Cd893      Cd  0.99629511  0.00122642  0.29199942     1.59600
O894        O  0.61408103  0.06341237  0.26985980    -0.81100
O895        O  0.99841851  0.00439925  0.24977994    -1.91600
Cd896      Cd  0.96455171  0.43885565  0.23412273     1.59900
O897        O  0.56732797  0.03624007  0.30806780    -0.81000
O898        O  0.90417806  0.42503395  0.21212658    -0.79700
C899        C  0.94495222  0.05791687  0.29454127     0.82900
C900        C  0.55706073  0.11194772  0.20349878     0.82500
O901        O  0.90904253  0.49497540  0.21424445    -0.78600
C902        C  0.55235518  0.44986466  0.20433518     0.83300
O903        O  0.94774986  0.06315026  0.26792313    -0.78700
C904        C  0.60864014  0.05864202  0.29643402     0.83500
C905        C  0.94482726  0.39084931  0.29232032     0.83800
O906        O  0.96414509  0.43055740  0.30556070    -0.81100
C907        C  0.56701598  0.15724474  0.06209000    -0.06300
C908        C  0.61355520  0.19375810  0.05512461    -0.17400
C909        C  0.63632043  0.23771028  0.06917467     0.10900
C910        C  0.61228386  0.24528079  0.09158939    -0.06200
C911        C  0.56451932  0.20927207  0.09752821    -0.17400
C912        C  0.54200670  0.16528275  0.08344317     0.11000
S913        S  0.69563020  0.28256666  0.05747224    -0.32400
S914        S  0.48254740  0.12030189  0.09480082    -0.32400
H915        H  0.48876473  0.08144913  0.09069603     0.29000
H916        H  0.70360199  0.25396078  0.03898554     0.29000
H917        H  0.63188276  0.18786993  0.03808783     0.19600
H918        H  0.54504940  0.21485983  0.11401223     0.19600
C919        C  0.84603207  0.43065345  0.06733739    -0.06300
C920        C  0.82839670  0.38523062  0.07929830    -0.17400
C921        C  0.78667585  0.36319805  0.09562905     0.10900
C922        C  0.76018264  0.38584124  0.09872434    -0.06200
C923        C  0.78041429  0.43287574  0.08960606    -0.17400
C924        C  0.82295671  0.45581972  0.07431679     0.11000
S925        S  0.77115099  0.30752981  0.11243147    -0.32400
S926        S  0.84540612  0.51721443  0.06525532    -0.32400
H927        H  0.88884436  0.03311291  0.07555135     0.29000
H928        H  0.72387548  0.29244615  0.11986845     0.29000
H929        H  0.84709962  0.36643998  0.07590912     0.19600
H930        H  0.76356809  0.45262707  0.09526639     0.19600
C931        C  0.61461501  0.38287407  0.09018170    -0.06300
C932        C  0.56624091  0.36768377  0.09533126    -0.17400
C933        C  0.54374115  0.38892055  0.08201428     0.10900
C934        C  0.56900783  0.42450631  0.06147744    -0.06200
C935        C  0.61584875  0.43707607  0.05460509    -0.17400
C936        C  0.63859154  0.41627499  0.06823180     0.11000
S937        S  0.48378441  0.37062908  0.09328475    -0.32400
S938        S  0.69673334  0.43151753  0.05566393    -0.32400
H939        H  0.70708786  0.47231510  0.04017089     0.29000
H940        H  0.49050135  0.41650030  0.09150103     0.29000
H941        H  0.54571342  0.33925320  0.11014609     0.19600
H942        H  0.63425533  0.46252390  0.03780814     0.19600
C943        C  0.61380740  0.24290317  0.15657764    -0.06300
C944        C  0.62603576  0.20906610  0.14880886    -0.17400
C945        C  0.60761986  0.16562281  0.16309340     0.10900
C946        C  0.57747419  0.15594453  0.18654431    -0.06200
C947        C  0.56674029  0.19004364  0.19505253    -0.17400
C948        C  0.58454278  0.23320755  0.18071467     0.11000
S949        S  0.62232662  0.12351875  0.14961190    -0.32400
S950        S  0.56900176  0.27436471  0.19447501    -0.32400
H951        H  0.53384741  0.24372183  0.21390575     0.29000
H952        H  0.57714517  0.08276484  0.15536776     0.29000
H953        H  0.64988779  0.21620830  0.13121734     0.19600
H954        H  0.54473390  0.18298157  0.21358891     0.19600
C955        C  0.75314963  0.38607827  0.16112027    -0.06300
C956        C  0.78663344  0.43511803  0.15809843    -0.17400
C957        C  0.83110430  0.45748669  0.17198895     0.10900
C958        C  0.84157833  0.43059994  0.19065452    -0.06200
C959        C  0.80718216  0.38197032  0.19466071    -0.17400
C960        C  0.76328898  0.35942950  0.18009584     0.11000
S961        S  0.87504939  0.51916944  0.16389316    -0.32400
S962        S  0.72173498  0.29645843  0.18531245    -0.32400
H963        H  0.75064499  0.28811669  0.20350637     0.29000
H964        H  0.84853844  0.52535190  0.14272034     0.29000
H965        H  0.77844318  0.45574452  0.14408512     0.19600
H966        H  0.81492079  0.36147755  0.20922782     0.19600
C967        C  0.61558181  0.38770814  0.15396183    -0.06300
C968        C  0.56831814  0.35937567  0.16344127    -0.17400
C969        C  0.54758654  0.37764710  0.18099924     0.10900
C970        C  0.57340638  0.42704652  0.18762289    -0.06200
C971        C  0.62066358  0.45576115  0.17748459    -0.17400
C972        C  0.64201087  0.43667223  0.16091750     0.11000
S973        S  0.48958902  0.33485751  0.19544004    -0.32400
S974        S  0.70312990  0.47678945  0.14987807    -0.32400
H975        H  0.70000475  0.45418250  0.12426371     0.29000
H976        H  0.50298307  0.35161891  0.22325102     0.29000
H977        H  0.54739479  0.32214577  0.15739263     0.19600
H978        H  0.64127687  0.49358654  0.18231057     0.19600
C979        C  0.88114795  0.11878489  0.40355472    -0.06300
C980        C  0.85124093  0.07910166  0.42030647    -0.17400
C981        C  0.86929456  0.05652019  0.43648369     0.10900
C982        C  0.91855818  0.07270739  0.43503312    -0.06200
C983        C  0.94831991  0.11031480  0.41692769    -0.17400
C984        C  0.93052594  0.13388993  0.40129836     0.11000
S985        S  0.82737132  0.00649730  0.45784664    -0.32400
S986        S  0.97375920  0.18242353  0.37945925    -0.32400
H987        H  0.94499598  0.20027084  0.37132844     0.29000
H988        H  0.85127850  0.98130413  0.45589216     0.29000
H989        H  0.81287420  0.06387192  0.41959502     0.19600
H990        H  0.98617131  0.12235689  0.41559961     0.19600
C991        C  0.91722209  0.34841062  0.43777141    -0.06300
C992        C  0.92598407  0.31312976  0.44689827    -0.17400
C993        C  0.91069215  0.27155115  0.43132093     0.10900
C994        C  0.88385387  0.26342795  0.40614004    -0.06200
C995        C  0.87292492  0.29795486  0.39789682    -0.17400
C996        C  0.88991792  0.34048558  0.41306414     0.11000
S997        S  0.93070704  0.23317271  0.44404557    -0.32400
S998        S  0.87431890  0.38234536  0.40023585    -0.32400
H999        H  0.87074299  0.39874217  0.42694626     0.29000
H1000       H  0.93962151  0.22301848  0.41707394     0.29000
H1001       H  0.94712397  0.31908811  0.46580900     0.19600
H1002       H  0.85092289  0.29189770  0.37943418     0.19600
C1003       C  0.65374683  0.08876853  0.44125060    -0.06300
C1004       C  0.69195255  0.08555421  0.45174576    -0.17400
C1005       C  0.73626420  0.10624499  0.43780838     0.10900
C1006       C  0.74241235  0.12943753  0.41129358    -0.06200
C1007       C  0.70511980  0.13662453  0.40279623    -0.17400
C1008       C  0.66112674  0.11622401  0.41694110     0.11000
S1009       S  0.78272786  0.10249010  0.45590833    -0.32400
S1010       S  0.61675315  0.12814876  0.40337647    -0.32400
H1011       H  0.59890670  0.13051445  0.42987322     0.29000
H1012       H  0.75994164  0.08570664  0.48208992     0.29000
H1013       H  0.68657997  0.06577860  0.47102605     0.19600
H1014       H  0.71021300  0.15942849  0.38527608     0.19600
C1015       C  0.87191796  0.11488397  0.34025452    -0.06300
C1016       C  0.90814197  0.14370521  0.32093345    -0.17400
C1017       C  0.93352579  0.12663488  0.30640736     0.10900
C1018       C  0.92197029  0.07915176  0.31073567    -0.06200
C1019       C  0.88410030  0.04959741  0.32888274    -0.17400
C1020       C  0.85809147  0.06634568  0.34298501     0.11000
S1021       S  0.48620250  0.16942010  0.28605020    -0.32400
S1022       S  0.80559628  0.02252158  0.36201579    -0.32400
H1023       H  0.78602911  0.05095437  0.36680285     0.29000
H1024       H  0.51427615  0.14901824  0.29069030     0.29000
H1025       H  0.91869831  0.18074208  0.31836414     0.19600
H1026       H  0.87338622  0.01247781  0.33120590     0.19600
C1027       C  0.92490219  0.34580986  0.30837875    -0.06300
C1028       C  0.95177022  0.34379470  0.33082057    -0.17400
C1029       C  0.93550252  0.30151875  0.34619933     0.10900
C1030       C  0.88930907  0.26103597  0.34047121    -0.06200
C1031       C  0.86502185  0.26213293  0.31629249    -0.17400
C1032       C  0.88164199  0.30381364  0.30055468     0.11000
S1033       S  0.97664679  0.29880180  0.37049241    -0.32400
S1034       S  0.84454192  0.30125761  0.27154166    -0.32400
H1035       H  0.85156150  0.34671959  0.27650026     0.29000
H1036       H  0.01066641  0.34812024  0.37153373     0.29000
H1037       H  0.98659707  0.37499852  0.33551511     0.19600
H1038       H  0.83172307  0.23079818  0.30988167     0.19600
C1039       C  0.73759249  0.12439236  0.34617469    -0.06300
C1040       C  0.70846964  0.07442146  0.34487086    -0.17400
C1041       C  0.66612134  0.05190088  0.32886932     0.10900
C1042       C  0.65209570  0.07991893  0.31405535    -0.06200
C1043       C  0.68071303  0.12974248  0.31555364    -0.17400
C1044       C  0.72265779  0.15234245  0.33182926     0.11000
S1045       S  0.62951955  0.48745885  0.32861811    -0.32400
S1046       S  0.75141424  0.21623491  0.33573495    -0.32400
H1047       H  0.77779327  0.22123704  0.36019854     0.29000
H1048       H  0.61117288  0.48245898  0.30118141     0.29000
H1049       H  0.71886713  0.05269655  0.35624145     0.19600
H1050       H  0.66943639  0.15123732  0.30458923     0.19600
C1051       C  0.83155906  0.16647600  0.84701928     0.45300
H1052       H  0.82815528  0.16406869  0.82373316    -0.03700
C1053       C  0.83834304  0.16974327  0.90150191     0.45400
H1054       H  0.84261863  0.17264354  0.92441121    -0.03700
C1055       C  0.86410201  0.21785019  0.85862324    -0.17400
C1056       C  0.78276138  0.14581851  0.86232161    -0.17200
C1057       C  0.85320097  0.13819166  0.85851987    -0.17500
C1058       C  0.86561073  0.21954581  0.88775696    -0.17500
C1059       C  0.78569097  0.14682731  0.89151360    -0.17100
C1060       C  0.85825190  0.14108012  0.88721383    -0.17400
C1061       C  0.65802506  0.33736057  0.65180640     0.45300
H1062       H  0.65686731  0.33796809  0.67510939    -0.03700
C1063       C  0.66357072  0.33918588  0.59707412     0.45400
H1064       H  0.66566742  0.34039658  0.57383682    -0.03700
C1065       C  0.70967535  0.36196471  0.64112616    -0.17400
C1066       C  0.63221406  0.28692991  0.63831407    -0.17200
C1067       C  0.63643364  0.36403825  0.63727040    -0.17500
C1068       C  0.71270811  0.36267423  0.61240748    -0.17500
C1069       C  0.63486113  0.28820396  0.60909469    -0.17100
C1070       C  0.63820618  0.36412283  0.60834582    -0.17400
O1071       O  0.90505096  0.49036614  0.53712080    -0.78600
C1072       C  0.54491567  0.11180283  0.54512163     0.82400
O1073       O  0.96326399  0.03655755  0.94118858    -0.79800
O1074       O  0.61045103  0.06577507  0.98398625    -0.81200
O1075       O  0.50331300  0.42140488  0.53736076    -0.81000
O1076       O  0.90379097  0.42256902  0.54041785    -0.79700
Zn1077     Zn  0.96079594  0.03397911  0.51223645     1.55700
O1078       O  0.57232797  0.49152287  0.53957607    -0.81100
Cd1079     Cd  0.95974816  0.43610044  0.51432079     1.59700
Cd1080     Cd  0.99708020  0.00354007  0.95752959     1.59600
O1081       O  0.93286333  0.38878766  0.98070564    -0.81100
O1082       O  0.99413208  0.00274981  0.49972832    -1.91600
Cd1083     Cd  0.56007147  0.03750369  0.51574804     1.57300
O1084       O  0.96139042  0.43390858  0.94209079    -0.81000
O1085       O  0.57098612  0.09420904  0.54031564    -0.79700
C1086       C  0.94003695  0.05321273  0.95292741     0.82900
C1087       C  0.88704690  0.44860552  0.54708387     0.82500
O1088       O  0.50257605  0.09310894  0.53520495    -0.78600
C1089       C  0.54658108  0.44726835  0.54572854     0.83300
O1090       O  0.93561441  0.05359462  0.97952751    -0.78700
C1091       C  0.93770084  0.39315694  0.95404809     0.83500
C1092       C  0.60834234  0.06446298  0.95716393     0.83800
O1093       O  0.56841370  0.04178848  0.94393018    -0.81100
O1094       O  0.51352566  0.09244936  0.71125218    -0.78600
C1095       C  0.88694634  0.45008801  0.70520082     0.82400
O1096       O  0.96003657  0.03315788  0.80708997    -0.79800
O1097       O  0.94218549  0.38823117  0.76479846    -0.81200
O1098       O  0.58094308  0.49186734  0.71421273    -0.81000
O1099       O  0.58270644  0.09443169  0.70957825    -0.79700
Zn1100     Zn  0.96817741  0.03715152  0.73571852     1.55700
O1101       O  0.50817213  0.42778347  0.70799509    -0.81100
Cd1102     Cd  0.56708367  0.03758111  0.73578464     1.59700
Cd1103     Cd  0.99706406  0.00120623  0.79162820     1.59600
O1104       O  0.61363692  0.06308944  0.76958485    -0.81100
O1105       O  0.99883928  0.00407513  0.74939055    -1.91600
Cd1106     Cd  0.96403392  0.43826668  0.73338401     1.59900
O1107       O  0.56658398  0.03553896  0.80766601    -0.81000
O1108       O  0.90363010  0.42373926  0.71122231    -0.79700
C1109       C  0.94450889  0.05685449  0.79437129     0.82900
C1110       C  0.55661476  0.11113262  0.70261158     0.82500
O1111       O  0.90816327  0.49353801  0.71304658    -0.78600
C1112       C  0.55334507  0.45014976  0.70415801     0.83300
O1113       O  0.94726028  0.06201811  0.76774175    -0.78700
C1114       C  0.60800926  0.05811909  0.79615287     0.83500
C1115       C  0.94379027  0.39040309  0.79155626     0.83800
O1116       O  0.96266390  0.43008677  0.80479367    -0.81100
C1117       C  0.56577394  0.15657395  0.56137431    -0.06300
C1118       C  0.61209480  0.19319205  0.55414490    -0.17400
C1119       C  0.63480613  0.23725585  0.56803029     0.10900
C1120       C  0.61092188  0.24479736  0.59054635    -0.06200
C1121       C  0.56324872  0.20875002  0.59664372    -0.17400
C1122       C  0.54079798  0.16463921  0.58272275     0.11000
S1123       S  0.69380091  0.28224273  0.55595305    -0.32400
S1124       S  0.48153838  0.11955478  0.59430839    -0.32400
H1125       H  0.48790491  0.08079493  0.59021109     0.29000
H1126       H  0.70202614  0.25339047  0.53782884     0.29000
H1127       H  0.63029481  0.18727731  0.53704183     0.19600
H1128       H  0.54387187  0.21436555  0.61317529     0.19600
C1129       C  0.84537115  0.42936060  0.56645859    -0.06300
C1130       C  0.82728699  0.38364954  0.57811585    -0.17400
C1131       C  0.78537925  0.36156024  0.59428568     0.10900
C1132       C  0.75913494  0.38444612  0.59748683    -0.06200
C1133       C  0.77961738  0.43156641  0.58848881    -0.17400
C1134       C  0.82234573  0.45456677  0.57340943     0.11000
S1135       S  0.76933717  0.30552341  0.61079246    -0.32400
S1136       S  0.84528058  0.51621728  0.56476816    -0.32400
H1137       H  0.89056928  0.03258743  0.57622599     0.29000
H1138       H  0.72233387  0.29095434  0.61856227     0.29000
H1139       H  0.84583254  0.36471913  0.57466721     0.19600
H1140       H  0.76302824  0.45148461  0.59428669     0.19600
C1141       C  0.61417155  0.38291898  0.58993282    -0.06300
C1142       C  0.56575585  0.36745228  0.59515247    -0.17400
C1143       C  0.54315026  0.38878184  0.58209179     0.10900
C1144       C  0.56849298  0.42494732  0.56186965    -0.06200
C1145       C  0.61544705  0.43794308  0.55500730    -0.17400
C1146       C  0.63817888  0.41685275  0.56825574     0.11000
S1147       S  0.48290846  0.36968181  0.59319716    -0.32400
S1148       S  0.69623363  0.43223332  0.55546933    -0.32400
H1149       H  0.70595884  0.47228624  0.53939654     0.29000
H1150       H  0.48909611  0.41535377  0.59164429     0.29000
H1151       H  0.54528602  0.33869447  0.60979831     0.19600
H1152       H  0.63387574  0.46382454  0.53841513     0.19600
C1153       C  0.61286127  0.24194241  0.65548704    -0.06300
C1154       C  0.62509602  0.20812680  0.64765439    -0.17400
C1155       C  0.60706097  0.16481697  0.66207829     0.10900
C1156       C  0.57690558  0.15506011  0.68555245    -0.06200
C1157       C  0.56598590  0.18904897  0.69399873    -0.17400
C1158       C  0.58399121  0.23234120  0.67978596     0.11000
S1159       S  0.62228323  0.12300504  0.64875175    -0.32400
S1160       S  0.56817225  0.27326778  0.69352422    -0.32400
H1161       H  0.55064552  0.25149060  0.71986619     0.29000
H1162       H  0.57740400  0.08200975  0.65472211     0.29000
H1163       H  0.64876377  0.21524146  0.62996897     0.19600
H1164       H  0.54331521  0.18165361  0.71225849     0.19600
C1165       C  0.75269905  0.38467179  0.65994757    -0.06300
C1166       C  0.78659713  0.43352596  0.65660055    -0.17400
C1167       C  0.83117139  0.45564259  0.67029981     0.10900
C1168       C  0.84109218  0.42897277  0.68943916    -0.06200
C1169       C  0.80629532  0.38057306  0.69383650    -0.17400
C1170       C  0.76239594  0.35811038  0.67926099     0.11000
S1171       S  0.87591250  0.51666554  0.66136951    -0.32400
S1172       S  0.72034894  0.29533604  0.68482974    -0.32400
H1173       H  0.74649794  0.28823860  0.70579957     0.29000
H1174       H  0.85161012  0.52074007  0.63803972     0.29000
H1175       H  0.77861896  0.45427422  0.64256094     0.19600
H1176       H  0.81378384  0.36020035  0.70864713     0.19600
C1177       C  0.61596991  0.38763035  0.65358707    -0.06300
C1178       C  0.56879673  0.35948285  0.66319907    -0.17400
C1179       C  0.54844029  0.37786026  0.68094977     0.10900
C1180       C  0.57435891  0.42730719  0.68743912    -0.06200
C1181       C  0.62150221  0.45591968  0.67711593    -0.17400
C1182       C  0.64262329  0.43664191  0.66048098     0.11000
S1183       S  0.49085025  0.33509648  0.69587110    -0.32400
S1184       S  0.70370176  0.47659979  0.64927715    -0.32400
H1185       H  0.70082084  0.45328433  0.62400020     0.29000
H1186       H  0.50473855  0.35244764  0.72354324     0.29000
H1187       H  0.54764289  0.32229553  0.65710945     0.19600
H1188       H  0.64217836  0.49377222  0.68186409     0.19600
C1189       C  0.88106473  0.11920688  0.90325711    -0.06300
C1190       C  0.85116639  0.08013311  0.92042302    -0.17400
C1191       C  0.86915695  0.05773071  0.93682977     0.10900
C1192       C  0.91830961  0.07346286  0.93519896    -0.06200
C1193       C  0.94801115  0.11048875  0.91674884    -0.17400
C1194       C  0.93032041  0.13392015  0.90090508     0.11000
S1195       S  0.82727272  0.00848242  0.95867963    -0.32400
S1196       S  0.97356514  0.18182790  0.87872909    -0.32400
H1197       H  0.94496053  0.19976103  0.87043107     0.29000
H1198       H  0.85062171  0.98273970  0.95681063     0.29000
H1199       H  0.81283950  0.06526915  0.91990670     0.19600
H1200       H  0.98576928  0.12219974  0.91530063     0.19600
C1201       C  0.91716234  0.34902505  0.93701244    -0.06300
C1202       C  0.92628239  0.31391447  0.94599448    -0.17400
C1203       C  0.91131391  0.27247486  0.93030354     0.10900
C1204       C  0.88431538  0.26417730  0.90516487    -0.06200
C1205       C  0.87334431  0.29869315  0.89693061    -0.17400
C1206       C  0.89008720  0.34114705  0.91219338     0.11000
S1207       S  0.93182802  0.23441928  0.94287373    -0.32400
S1208       S  0.87440956  0.38293748  0.89934767    -0.32400
H1209       H  0.87072886  0.39930694  0.92604145     0.29000
H1210       H  0.94016549  0.22392160  0.91584755     0.29000
H1211       H  0.94740360  0.31988762  0.96491500     0.19600
H1212       H  0.85135221  0.29261026  0.87845825     0.19600
C1213       C  0.65412913  0.08910163  0.94133574    -0.06300
C1214       C  0.69277103  0.08674305  0.95196665    -0.17400
C1215       C  0.73697973  0.10737631  0.93786648     0.10900
C1216       C  0.74267393  0.12995220  0.91115275    -0.06200
C1217       C  0.70497053  0.13643575  0.90256700    -0.17400
C1218       C  0.66103829  0.11587582  0.91677846     0.11000
S1219       S  0.78428141  0.10552501  0.95633939    -0.32400
S1220       S  0.61615935  0.12688933  0.90299481    -0.32400
H1221       H  0.59888273  0.13032326  0.92945650     0.29000
H1222       H  0.75788649  0.07702513  0.97938225     0.29000
H1223       H  0.68791853  0.06806387  0.97162017     0.19600
H1224       H  0.70968125  0.15886085  0.88491803     0.19600
C1225       C  0.87150851  0.11437081  0.83989780    -0.06300
C1226       C  0.90770162  0.14289254  0.82048626    -0.17400
C1227       C  0.93307441  0.12562405  0.80611625     0.10900
C1228       C  0.92143289  0.07813018  0.81055066    -0.06200
C1229       C  0.88354146  0.04880568  0.82877042    -0.17400
C1230       C  0.85768195  0.06583731  0.84284188     0.11000
S1231       S  0.48219466  0.16711629  0.78374711    -0.32400
S1232       S  0.80542832  0.02240760  0.86221391    -0.32400
H1233       H  0.78579392  0.05086645  0.86670736     0.29000
H1234       H  0.51158351  0.14836315  0.78901875     0.29000
H1235       H  0.91833534  0.17992424  0.81777011     0.19600
H1236       H  0.87276639  0.01169327  0.83122791     0.19600
C1237       C  0.92395041  0.34543810  0.80760518    -0.06300
C1238       C  0.95130878  0.34326848  0.82968419    -0.17400
C1239       C  0.93520308  0.30097450  0.84498896     0.10900
C1240       C  0.88878157  0.26067871  0.83953834    -0.06200
C1241       C  0.86402017  0.26184154  0.81561989    -0.17400
C1242       C  0.88040063  0.30359829  0.79999586     0.11000
S1243       S  0.97661344  0.29795576  0.86891489    -0.32400
S1244       S  0.84268988  0.30141929  0.77144824    -0.32400
H1245       H  0.85081484  0.34733668  0.77629877     0.29000
H1246       H  0.01232033  0.34681017  0.86860970     0.29000
H1247       H  0.98630083  0.37439130  0.83416950     0.19600
H1248       H  0.83057643  0.23052009  0.80937567     0.19600
C1249       C  0.73710427  0.12411766  0.84593464    -0.06300
C1250       C  0.70786163  0.07413083  0.84480211    -0.17400
C1251       C  0.66536743  0.05150367  0.82889411     0.10900
C1252       C  0.65139975  0.07943332  0.81389792    -0.06200
C1253       C  0.68010426  0.12926510  0.81527567    -0.17400
C1254       C  0.72207013  0.15195688  0.83154443     0.11000
S1255       S  0.63053144  0.48770910  0.82850263    -0.32400
S1256       S  0.75061966  0.21582806  0.83546603    -0.32400
H1257       H  0.77726647  0.22099425  0.85983844     0.29000
H1258       H  0.61255467  0.48285427  0.80097749     0.29000
H1259       H  0.71827126  0.05247648  0.85624831     0.19600
H1260       H  0.66885538  0.15071690  0.80423341     0.19600
C1261       C  0.83192841  0.66610568  0.34736839     0.45300
H1262       H  0.82919443  0.66388033  0.32405838    -0.03700
C1263       C  0.83711496  0.66862221  0.40194417     0.45400
H1264       H  0.84054026  0.67124255  0.42496910    -0.03700
C1265       C  0.86407366  0.71737889  0.35916850    -0.17400
C1266       C  0.78265876  0.64525675  0.36222827    -0.17200
C1267       C  0.85348098  0.63789391  0.35922941    -0.17500
C1268       C  0.86479773  0.71854383  0.38829641    -0.17500
C1269       C  0.78485540  0.64578498  0.39140859    -0.17100
C1270       C  0.85725972  0.64003602  0.38797989    -0.17400
C1271       C  0.65859637  0.83851939  0.15174508     0.45300
H1272       H  0.65769588  0.83952612  0.17503637    -0.03700
C1273       C  0.66374605  0.83958423  0.09702573     0.45400
H1274       H  0.66564912  0.84036021  0.07379782    -0.03700
C1275       C  0.71017817  0.86320889  0.14098024    -0.17400
C1276       C  0.63292575  0.78790248  0.13851561    -0.17200
C1277       C  0.63664336  0.86475282  0.13708337    -0.17500
C1278       C  0.71301536  0.86359799  0.11226368    -0.17500
C1279       C  0.63534152  0.78872960  0.10928133    -0.17100
C1280       C  0.63823943  0.86449126  0.10813886    -0.17400
O1281       O  0.90538376  0.99148324  0.03682298    -0.78600
C1282       C  0.54575276  0.61158156  0.04574066     0.82400
O1283       O  0.96353695  0.53626665  0.44145196    -0.79800
O1284       O  0.60975434  0.56432858  0.48374212    -0.81200
O1285       O  0.50368152  0.92237398  0.03727997    -0.81000
O1286       O  0.90299192  0.92305249  0.03954229    -0.79700
Zn1287     Zn  0.96045210  0.53450264  0.01298686     1.55700
O1288       O  0.57299143  0.99230425  0.03931841    -0.81100
Cd1289     Cd  0.95918041  0.93620360  0.01376627     1.59700
Cd1290     Cd  0.99715341  0.50306654  0.45791853     1.59600
O1291       O  0.93392863  0.88805892  0.48074309    -0.81100
O1292       O  0.99372621  0.50331485  0.00019464    -1.91600
Cd1293     Cd  0.56044115  0.53715470  0.01599580     1.57300
O1294       O  0.96218087  0.93289482  0.44199081    -0.81000
O1295       O  0.57171572  0.59390820  0.04077435    -0.79700
C1296       C  0.93978730  0.55238114  0.45315011     0.82900
C1297       C  0.88678220  0.94945478  0.04646074     0.82500
O1298       O  0.50339387  0.59303886  0.03585946    -0.78600
C1299       C  0.54709999  0.94807540  0.04546613     0.83300
O1300       O  0.93483978  0.55228800  0.47972417    -0.78700
C1301       C  0.93874759  0.89225205  0.45409234     0.83500
C1302       C  0.60746200  0.56316389  0.45691778     0.83800
O1303       O  0.56747452  0.54079042  0.44375051    -0.81100
O1304       O  0.51414280  0.59380107  0.21134207    -0.78600
C1305       C  0.88710282  0.95119767  0.20552176     0.82400
O1306       O  0.96148591  0.53374667  0.30786550    -0.79800
O1307       O  0.94089580  0.88842535  0.26571975    -0.81200
O1308       O  0.58082787  0.99200283  0.21425047    -0.81000
O1309       O  0.58296095  0.59507254  0.20966186    -0.79700
Zn1310     Zn  0.96918445  0.53828624  0.23655990     1.55700
O1311       O  0.50808666  0.92772267  0.20837320    -0.81100
Cd1312     Cd  0.56676863  0.53812518  0.23587964     1.59700
Cd1313     Cd  0.99778086  0.50138189  0.29209262     1.59600
O1314       O  0.61343770  0.56371432  0.26959014    -0.81100
O1315       O  0.99955781  0.50470591  0.24989374    -1.91600
Cd1316     Cd  0.96340005  0.93840909  0.23417610     1.59900
O1317       O  0.56647395  0.53687333  0.30771930    -0.81000
O1318       O  0.90345534  0.92459627  0.21168574    -0.79700
C1319       C  0.94660082  0.55819574  0.29541694     0.82900
C1320       C  0.55723853  0.61222919  0.20279502     0.82500
O1321       O  0.90849918  0.99464080  0.21337519    -0.78600
C1322       C  0.55321504  0.95024162  0.20427638     0.83300
O1323       O  0.94938468  0.56383084  0.26882048    -0.78700
C1324       C  0.60787239  0.55910334  0.29616581     0.83500
C1325       C  0.94282556  0.89066791  0.29247590     0.83800
O1326       O  0.96221587  0.93045386  0.30563799    -0.81100
C1327       C  0.56673290  0.65633463  0.06207999    -0.06300
C1328       C  0.61283800  0.69317013  0.05465087    -0.17400
C1329       C  0.63536793  0.73743017  0.06835736     0.10900
C1330       C  0.61153967  0.74497663  0.09092397    -0.06200
C1331       C  0.56410482  0.70858712  0.09728468    -0.17400
C1332       C  0.54189440  0.66426999  0.08357797     0.11000
S1333       S  0.69418497  0.78259465  0.05610766    -0.32400
S1334       S  0.48315822  0.61873961  0.09564633    -0.32400
H1335       H  0.48988566  0.58028447  0.09118869     0.29000
H1336       H  0.70079620  0.75503872  0.03605677     0.29000
H1337       H  0.63100229  0.68722990  0.03754194     0.19600
H1338       H  0.54475283  0.71409748  0.11387781     0.19600
C1339       C  0.84514430  0.93033574  0.06584962    -0.06300
C1340       C  0.82755016  0.88494010  0.07784190    -0.17400
C1341       C  0.78582316  0.86287264  0.09414452     0.10900
C1342       C  0.75933404  0.88550323  0.09725547    -0.06200
C1343       C  0.77932482  0.93239988  0.08792629    -0.17400
C1344       C  0.82178156  0.95531977  0.07256383     0.11000
S1345       S  0.77028882  0.80715897  0.11089826    -0.32400
S1346       S  0.84368904  0.01642298  0.06301311    -0.32400
H1347       H  0.89073706  0.53310466  0.07730252     0.29000
H1348       H  0.72318007  0.79224846  0.11862839     0.29000
H1349       H  0.84634932  0.86622128  0.07454865     0.19600
H1350       H  0.76239625  0.95210178  0.09351822     0.19600
C1351       C  0.61423176  0.88322060  0.08959839    -0.06300
C1352       C  0.56619414  0.86877278  0.09525805    -0.17400
C1353       C  0.54389599  0.89043254  0.08225271     0.10900
C1354       C  0.56892981  0.92559789  0.06149363    -0.06200
C1355       C  0.61532852  0.93741693  0.05409329    -0.17400
C1356       C  0.63788713  0.91614645  0.06737287     0.11000
S1357       S  0.48454538  0.87323364  0.09417315    -0.32400
S1358       S  0.69523423  0.93010953  0.05402376    -0.32400
H1359       H  0.70405957  0.96821339  0.03634708     0.29000
H1360       H  0.49172738  0.91925353  0.09200626     0.29000
H1361       H  0.54578097  0.84059751  0.11023457     0.19600
H1362       H  0.63343858  0.96259986  0.03713982     0.19600
C1363       C  0.61397203  0.74321653  0.15592455    -0.06300
C1364       C  0.62599614  0.70927072  0.14802208    -0.17400
C1365       C  0.60772762  0.66587684  0.16234402     0.10900
C1366       C  0.57795761  0.65636637  0.18595781    -0.06200
C1367       C  0.56769318  0.69068983  0.19469220    -0.17400
C1368       C  0.58560162  0.73393236  0.18043683     0.11000
S1369       S  0.62191475  0.62353609  0.14862053    -0.32400
S1370       S  0.57037256  0.77519797  0.19441217    -0.32400
H1371       H  0.55027704  0.75204632  0.22009850     0.29000
H1372       H  0.57676484  0.58291560  0.15461295     0.29000
H1373       H  0.64948544  0.71623568  0.13026433     0.19600
H1374       H  0.54548454  0.68348390  0.21314925     0.19600
C1375       C  0.75326429  0.88599795  0.15977880    -0.06300
C1376       C  0.78716609  0.93488016  0.15647811    -0.17400
C1377       C  0.83152253  0.95709571  0.17049201     0.10900
C1378       C  0.84136924  0.93031715  0.18961944    -0.06200
C1379       C  0.80657515  0.88191393  0.19390028    -0.17400
C1380       C  0.76281560  0.85947924  0.17921787     0.11000
S1381       S  0.87607432  0.01842899  0.16206101    -0.32400
S1382       S  0.72085272  0.79671160  0.18480233    -0.32400
H1383       H  0.74619684  0.78999744  0.20647074     0.29000
H1384       H  0.85087751  0.02378085  0.13970947     0.29000
H1385       H  0.77929075  0.95555093  0.14229025     0.19600
H1386       H  0.81395774  0.86148129  0.20872496     0.19600
C1387       C  0.61601752  0.88822819  0.15337244    -0.06300
C1388       C  0.56907705  0.85980544  0.16331311    -0.17400
C1389       C  0.54863738  0.87807458  0.18108937     0.10900
C1390       C  0.57423037  0.92758745  0.18736390    -0.06200
C1391       C  0.62113407  0.95645298  0.17672271    -0.17400
C1392       C  0.64235709  0.93733550  0.16003069     0.11000
S1393       S  0.49142799  0.83514054  0.19634303    -0.32400
S1394       S  0.70324190  0.97756410  0.14856967    -0.32400
H1395       H  0.70048640  0.95388988  0.12346571     0.29000
H1396       H  0.50566969  0.85283818  0.22392446     0.29000
H1397       H  0.54818216  0.82249139  0.15744046     0.19600
H1398       H  0.64157443  0.99436830  0.18130898     0.19600
C1399       C  0.88007745  0.61832296  0.40417904    -0.06300
C1400       C  0.84993049  0.57675529  0.41948454    -0.17400
C1401       C  0.86820131  0.55424295  0.43556875     0.10900
C1402       C  0.91798615  0.57254647  0.43544984    -0.06200
C1403       C  0.94816895  0.61232685  0.41885399    -0.17400
C1404       C  0.93005347  0.63577709  0.40342274     0.11000
S1405       S  0.82603428  0.50181249  0.45519618    -0.32400
S1406       S  0.97344835  0.68740553  0.38373747    -0.32400
H1407       H  0.94337460  0.70415048  0.37673032     0.29000
H1408       H  0.85219635  0.47884714  0.45363135     0.29000
H1409       H  0.81143877  0.56039569  0.41792829     0.19600
H1410       H  0.98647236  0.62612419  0.41861006     0.19600
C1411       C  0.91802727  0.84805776  0.43718469    -0.06300
C1412       C  0.92813882  0.81334435  0.44566724    -0.17400
C1413       C  0.91194612  0.77133698  0.43012809     0.10900
C1414       C  0.88334651  0.76281104  0.40577935    -0.06200
C1415       C  0.87181213  0.79702712  0.39795603    -0.17400
C1416       C  0.88944857  0.83971559  0.41300779     0.11000
S1417       S  0.93252663  0.73194751  0.44031428    -0.32400
S1418       S  0.87345489  0.88147966  0.40054040    -0.32400
H1419       H  0.87093281  0.89831803  0.42732341     0.29000
H1420       H  0.95207952  0.75299843  0.46660500     0.29000
H1421       H  0.95068168  0.82026820  0.46400506     0.19600
H1422       H  0.84902645  0.79066176  0.37983308     0.19600
C1423       C  0.65307016  0.58752397  0.44096807    -0.06300
C1424       C  0.69128715  0.58408956  0.45119454    -0.17400
C1425       C  0.73514678  0.60412439  0.43685740     0.10900
C1426       C  0.74145770  0.62824773  0.41069879    -0.06200
C1427       C  0.70408405  0.63538359  0.40234705    -0.17400
C1428       C  0.66014652  0.61478687  0.41658583     0.11000
S1429       S  0.78127751  0.59944836  0.45455977    -0.32400
S1430       S  0.61549786  0.62635930  0.40307618    -0.32400
H1431       H  0.59826217  0.62945369  0.42962480     0.29000
H1432       H  0.75083433  0.55790013  0.47011358     0.29000
H1433       H  0.68659593  0.56519692  0.47076831     0.19600
H1434       H  0.70903750  0.65822143  0.38485653     0.19600
C1435       C  0.87328442  0.61512392  0.34098804    -0.06300
C1436       C  0.91155586  0.64474743  0.32300767    -0.17400
C1437       C  0.93707126  0.62764044  0.30862292     0.10900
C1438       C  0.92386909  0.57945352  0.31188231    -0.06200
C1439       C  0.88453140  0.54939624  0.32899808    -0.17400
C1440       C  0.85833242  0.56617228  0.34288758     0.11000
S1441       S  0.47874883  0.66765831  0.28154021    -0.32400
S1442       S  0.80426549  0.52197503  0.36054104    -0.32400
H1443       H  0.78515268  0.55082250  0.36523455     0.29000
H1444       H  0.50965920  0.65061047  0.28659918     0.29000
H1445       H  0.92314995  0.68217165  0.32118889     0.19600
H1446       H  0.87278407  0.51190691  0.33057653     0.19600
C1447       C  0.92306061  0.84570090  0.30859240    -0.06300
C1448       C  0.95019466  0.84394239  0.33093716    -0.17400
C1449       C  0.93459062  0.80163694  0.34613630     0.10900
C1450       C  0.88872720  0.76065292  0.34029572    -0.06200
C1451       C  0.86425279  0.76158068  0.31616062    -0.17400
C1452       C  0.88012917  0.80343154  0.30069598     0.11000
S1453       S  0.97642549  0.79976495  0.37022667    -0.32400
S1454       S  0.84249630  0.80076100  0.27197019    -0.32400
H1455       H  0.84947625  0.84617997  0.27704366     0.29000
H1456       H  0.00994959  0.84920197  0.37127169     0.29000
H1457       H  0.98481352  0.87541310  0.33565415     0.19600
H1458       H  0.83131717  0.72994881  0.30961434     0.19600
C1459       C  0.73725969  0.62404085  0.34563027    -0.06300
C1460       C  0.70736651  0.57410845  0.34469257    -0.17400
C1461       C  0.66470934  0.55188268  0.32895408     0.10900
C1462       C  0.65130120  0.58014806  0.31385220    -0.06200
C1463       C  0.68059896  0.62994849  0.31507026    -0.17400
C1464       C  0.72260863  0.65225775  0.33131454     0.11000
S1465       S  0.63227405  0.98748207  0.32770435    -0.32400
S1466       S  0.75149536  0.71610235  0.33548520    -0.32400
H1467       H  0.77713103  0.72052728  0.36018321     0.29000
H1468       H  0.61413249  0.98306424  0.30025940     0.29000
H1469       H  0.71725972  0.55217062  0.35627530     0.19600
H1470       H  0.66970200  0.65167419  0.30401573     0.19600
C1471       C  0.83187785  0.66655864  0.84722165     0.45300
H1472       H  0.82857738  0.66422561  0.82393252    -0.03700
C1473       C  0.83836946  0.66954559  0.90171409     0.45400
H1474       H  0.84250448  0.67233323  0.92463534    -0.03700
C1475       C  0.86441401  0.71785749  0.85890180    -0.17400
C1476       C  0.78299057  0.64587259  0.86245906    -0.17200
C1477       C  0.85351572  0.63827204  0.85872006    -0.17500
C1478       C  0.86572559  0.71938829  0.88803318    -0.17500
C1479       C  0.78579248  0.64671199  0.89164927    -0.17100
C1480       C  0.85832487  0.64093816  0.88743100    -0.17400
C1481       C  0.65843626  0.83783467  0.65155521     0.45300
H1482       H  0.65715804  0.83853787  0.67484854    -0.03700
C1483       C  0.66436173  0.83952159  0.59684115     0.45400
H1484       H  0.66664781  0.84065067  0.57361021    -0.03700
C1485       C  0.71015322  0.86241760  0.64101606    -0.17400
C1486       C  0.63269880  0.78734479  0.63812912    -0.17200
C1487       C  0.63698024  0.86451198  0.63683909    -0.17500
C1488       C  0.71338828  0.86312437  0.61231191    -0.17500
C1489       C  0.63553345  0.78854206  0.60891118    -0.17100
C1490       C  0.63894486  0.86452404  0.60791460    -0.17400
O1491       O  0.90555731  0.99101713  0.53683661    -0.78600
C1492       C  0.54520540  0.61179748  0.54505642     0.82400
O1493       O  0.96299755  0.53668118  0.94190438    -0.79800
O1494       O  0.61040232  0.56518155  0.98402179    -0.81200
O1495       O  0.50410731  0.92203269  0.53698062    -0.81000
O1496       O  0.90351653  0.92276810  0.53978935    -0.79700
Zn1497     Zn  0.96017303  0.53372083  0.51257580     1.55700
O1498       O  0.57312965  0.99210314  0.53916725    -0.81100
Cd1499     Cd  0.95938963  0.93567527  0.51381431     1.59700
Cd1500     Cd  0.99678369  0.50351236  0.95800533     1.59600
O1501       O  0.93367040  0.88902106  0.98052729    -0.81100
O1502       O  0.99406280  0.50306086  0.50010422    -1.91600
Cd1503     Cd  0.55988797  0.53700028  0.51581289     1.57300
O1504       O  0.96177306  0.93390255  0.94178414    -0.81000
O1505       O  0.57126990  0.59422660  0.54013386    -0.79700
C1506       C  0.93959815  0.55313875  0.95365972     0.82900
C1507       C  0.88724198  0.94913329  0.54666786     0.82500
O1508       O  0.50269851  0.59287475  0.53535426    -0.78600
C1509       C  0.54746301  0.94781011  0.54522141     0.83300
O1510       O  0.93499832  0.55333398  0.98026250    -0.78700
C1511       C  0.93827805  0.89324968  0.95386577     0.83500
C1512       C  0.60833756  0.56420513  0.95719391     0.83800
O1513       O  0.56843003  0.54172930  0.94391378    -0.81100
O1514       O  0.51332293  0.59273090  0.71119955    -0.78600
C1515       C  0.88722189  0.95019760  0.70531908     0.82400
O1516       O  0.96021245  0.53349016  0.80684708    -0.79800
O1517       O  0.94233206  0.88840071  0.76524017    -0.81200
O1518       O  0.58097735  0.99170527  0.71393465    -0.81000
O1519       O  0.58243311  0.59459033  0.70933531    -0.79700
Zn1520     Zn  0.96793683  0.53721762  0.73550661     1.55700
O1521       O  0.50831447  0.92738496  0.70789514    -0.81100
Cd1522     Cd  0.56713888  0.53807405  0.73580829     1.59700
Cd1523     Cd  0.99659491  0.50094597  0.79138460     1.59600
O1524       O  0.61392023  0.56408690  0.76954546    -0.81100
O1525       O  0.99864479  0.50414153  0.74917157    -1.91600
Cd1526     Cd  0.96409083  0.93814133  0.73368777     1.59900
O1527       O  0.56698947  0.53636545  0.80766983    -0.81000
O1528       O  0.90373972  0.92372073  0.71141814    -0.79700
C1529       C  0.94486987  0.55739235  0.79418888     0.82900
C1530       C  0.55632658  0.61130709  0.70241572     0.82500
O1531       O  0.90856488  0.99364103  0.71316252    -0.78600
C1532       C  0.55346288  0.94995776  0.70391200     0.83300
O1533       O  0.94742810  0.56247730  0.76755238    -0.78700
C1534       C  0.60838140  0.55909416  0.79612334     0.83500
C1535       C  0.94443641  0.89065953  0.79199027     0.83800
O1536       O  0.96370958  0.93041292  0.80518841    -0.81100
C1537       C  0.56617414  0.65673124  0.56122746    -0.06300
C1538       C  0.61257909  0.69327997  0.55404242    -0.17400
C1539       C  0.63524695  0.73747150  0.56780939     0.10900
C1540       C  0.61152383  0.74505294  0.59039557    -0.06200
C1541       C  0.56378981  0.70910315  0.59645197    -0.17400
C1542       C  0.54123031  0.66497977  0.58252370     0.11000
S1543       S  0.69454787  0.78206331  0.55598750    -0.32400
S1544       S  0.48191972  0.62004767  0.59411823    -0.32400
H1545       H  0.48835860  0.58127101  0.59033157     0.29000
H1546       H  0.69366552  0.76054877  0.53019120     0.29000
H1547       H  0.63115533  0.68708024  0.53728673     0.19600
H1548       H  0.54443629  0.71479468  0.61296340     0.19600
C1549       C  0.84581327  0.93009312  0.56621219    -0.06300
C1550       C  0.82804272  0.88454604  0.57803189    -0.17400
C1551       C  0.78626305  0.86242789  0.59428879     0.10900
C1552       C  0.75990981  0.88517191  0.59750941    -0.06200
C1553       C  0.78020954  0.93226885  0.58848327    -0.17400
C1554       C  0.82275191  0.95525476  0.57320533     0.11000
S1555       S  0.77050925  0.80653082  0.61087028    -0.32400
S1556       S  0.84522315  0.01668177  0.56419246    -0.32400
H1557       H  0.89042649  0.53157775  0.57692320     0.29000
H1558       H  0.72335183  0.79162089  0.61850454     0.29000
H1559       H  0.84669042  0.86571244  0.57459919     0.19600
H1560       H  0.76346464  0.95206081  0.59425012     0.19600
C1561       C  0.61500227  0.88327061  0.58935376    -0.06300
C1562       C  0.56662353  0.86791677  0.59456692    -0.17400
C1563       C  0.54408143  0.88927798  0.58148797     0.10900
C1564       C  0.56941237  0.92536231  0.56122577    -0.06200
C1565       C  0.61631446  0.93819596  0.55430488    -0.17400
C1566       C  0.63898507  0.91699507  0.56755506     0.11000
S1567       S  0.48393784  0.87038960  0.59268313    -0.32400
S1568       S  0.69701694  0.93212270  0.55480394    -0.32400
H1569       H  0.70478135  0.96876466  0.53617006     0.29000
H1570       H  0.49041188  0.91619411  0.59131256     0.29000
H1571       H  0.54613889  0.83925285  0.60926541     0.19600
H1572       H  0.63476341  0.96414693  0.53775339     0.19600
C1573       C  0.61314662  0.74233342  0.65535009    -0.06300
C1574       C  0.62517500  0.70836101  0.64752093    -0.17400
C1575       C  0.60674670  0.66489537  0.66182879     0.10900
C1576       C  0.57657253  0.65519163  0.68528414    -0.06200
C1577       C  0.56585600  0.68932205  0.69375119    -0.17400
C1578       C  0.58407373  0.73270725  0.67957418     0.11000
S1579       S  0.62146820  0.62279779  0.64835996    -0.32400
S1580       S  0.56879598  0.77400920  0.69341223    -0.32400
H1581       H  0.54442284  0.74877430  0.71781750     0.29000
H1582       H  0.57645337  0.58199875  0.65435914     0.29000
H1583       H  0.64895787  0.71545782  0.62989747     0.19600
H1584       H  0.54337803  0.68201440  0.71208605     0.19600
C1585       C  0.75303221  0.88508847  0.65995252    -0.06300
C1586       C  0.78673885  0.93404488  0.65686331    -0.17400
C1587       C  0.83121306  0.95620059  0.67071612     0.10900
C1588       C  0.84138695  0.92924258  0.68950610    -0.06200
C1589       C  0.80673144  0.88072189  0.69363318    -0.17400
C1590       C  0.76282355  0.85836773  0.67907791     0.11000
S1591       S  0.87555440  0.01767591  0.66240320    -0.32400
S1592       S  0.72078703  0.79554690  0.68449488    -0.32400
H1593       H  0.74791722  0.78778557  0.70444074     0.29000
H1594       H  0.84871919  0.02437095  0.64168976     0.29000
H1595       H  0.77868673  0.95477572  0.64285249     0.19600
H1596       H  0.81427866  0.86018704  0.70827976     0.19600
C1597       C  0.61633718  0.88805386  0.65302662    -0.06300
C1598       C  0.56923706  0.85973038  0.66270899    -0.17400
C1599       C  0.54883878  0.87791454  0.68056917     0.10900
C1600       C  0.57455861  0.92735580  0.68704355    -0.06200
C1601       C  0.62156448  0.95619749  0.67655568    -0.17400
C1602       C  0.64278946  0.93710080  0.65985277     0.11000
S1603       S  0.49154619  0.83491407  0.69570962    -0.32400
S1604       S  0.70374709  0.97731263  0.64852602    -0.32400
H1605       H  0.70099700  0.95382545  0.62334877     0.29000
H1606       H  0.50571794  0.85236771  0.72334088     0.29000
H1607       H  0.54822366  0.82252326  0.65663911     0.19600
H1608       H  0.64207256  0.99406833  0.68126529     0.19600
C1609       C  0.88097702  0.61897330  0.90353363    -0.06300
C1610       C  0.85089912  0.57978587  0.92058016    -0.17400
C1611       C  0.86877159  0.55752564  0.93722031     0.10900
C1612       C  0.91799978  0.57347298  0.93589850    -0.06200
C1613       C  0.94789797  0.61059616  0.91755038    -0.17400
C1614       C  0.93031287  0.63389490  0.90149012     0.11000
S1615       S  0.82666325  0.50823307  0.95896645    -0.32400
S1616       S  0.97375623  0.68182587  0.87940191    -0.32400
H1617       H  0.94520541  0.69972242  0.87091256     0.29000
H1618       H  0.85023883  0.48267722  0.95746658     0.29000
H1619       H  0.81255407  0.56478196  0.91981943     0.19600
H1620       H  0.98570984  0.62243787  0.91631826     0.19600
C1621       C  0.91757054  0.84902721  0.93698397    -0.06300
C1622       C  0.92655972  0.81389857  0.94609926    -0.17400
C1623       C  0.91130294  0.77227177  0.93057682     0.10900
C1624       C  0.88427793  0.76392034  0.90545030    -0.06200
C1625       C  0.87329259  0.79839114  0.89714967    -0.17400
C1626       C  0.89023232  0.84097311  0.91227221     0.11000
S1627       S  0.93150544  0.73406778  0.94333235    -0.32400
S1628       S  0.87446809  0.88268855  0.89940251    -0.32400
H1629       H  0.87100173  0.89923696  0.92608510     0.29000
H1630       H  0.94000462  0.72354736  0.91635854     0.29000
H1631       H  0.94777441  0.81997979  0.96499226     0.19600
H1632       H  0.85121092  0.79220910  0.87870803     0.19600
C1633       C  0.65416802  0.58893436  0.94140714    -0.06300
C1634       C  0.69264138  0.58618073  0.95191838    -0.17400
C1635       C  0.73684666  0.60680946  0.93783629     0.10900
C1636       C  0.74273324  0.62978913  0.91124870    -0.06200
C1637       C  0.70519717  0.63660560  0.90276136    -0.17400
C1638       C  0.66129981  0.61617212  0.91702507     0.11000
S1639       S  0.78401725  0.60486211  0.95637661    -0.32400
S1640       S  0.61683149  0.62808502  0.90362669    -0.32400
H1641       H  0.59960642  0.63100388  0.93021908     0.29000
H1642       H  0.75625033  0.57167964  0.97740351     0.29000
H1643       H  0.68776415  0.56740919  0.97154221     0.19600
H1644       H  0.71004442  0.65920722  0.88516712     0.19600
C1645       C  0.87212257  0.61476607  0.84007827    -0.06300
C1646       C  0.90831244  0.64345592  0.82069265    -0.17400
C1647       C  0.93360043  0.62625965  0.80613945     0.10900
C1648       C  0.92200738  0.57875330  0.81048067    -0.06200
C1649       C  0.88426565  0.54936760  0.82876307    -0.17400
C1650       C  0.85837181  0.56625974  0.84290584     0.11000
S1651       S  0.48318703  0.66794070  0.78449827    -0.32400
S1652       S  0.80607192  0.52268082  0.86216604    -0.32400
H1653       H  0.78572675  0.55068125  0.86594481     0.29000
H1654       H  0.51222261  0.64880295  0.78982163     0.29000
H1655       H  0.91888004  0.68048393  0.81805970     0.19600
H1656       H  0.87353487  0.51225615  0.83115565     0.19600
C1657       C  0.92459796  0.84566877  0.80803946    -0.06300
C1658       C  0.95177658  0.84349665  0.83023441    -0.17400
C1659       C  0.93563515  0.80112320  0.84548104     0.10900
C1660       C  0.88928970  0.76078431  0.83988870    -0.06200
C1661       C  0.86477330  0.76197151  0.81586457    -0.17400
C1662       C  0.88120585  0.80376091  0.80028338     0.11000
S1663       S  0.97688791  0.79805762  0.86952795    -0.32400
S1664       S  0.84368716  0.80149639  0.77159726    -0.32400
H1665       H  0.85114449  0.84709835  0.77668997     0.29000
H1666       H  0.01351731  0.84654287  0.86841076     0.29000
H1667       H  0.98664781  0.87468151  0.83486197     0.19600
H1668       H  0.83143439  0.73064054  0.80949875     0.19600
C1669       C  0.73738243  0.62445602  0.84603386    -0.06300
C1670       C  0.70774246  0.57450448  0.84500150    -0.17400
C1671       C  0.66528330  0.55214034  0.82905856     0.10900
C1672       C  0.65180434  0.58028216  0.81386064    -0.06200
C1673       C  0.68088771  0.63009702  0.81515927    -0.17400
C1674       C  0.72273803  0.65253523  0.83154991     0.11000
S1675       S  0.63126632  0.98706270  0.82812314    -0.32400
S1676       S  0.75161331  0.71641790  0.83553652    -0.32400
H1677       H  0.77762925  0.72119076  0.86012846     0.29000
H1678       H  0.61246072  0.98214240  0.80082104     0.29000
H1679       H  0.71780305  0.55267570  0.85657108     0.19600
H1680       H  0.66997357  0.65173372  0.80401697     0.19600
loop_ 
_geom_bond_atom_site_label_1 
_geom_bond_atom_site_label_2 
_geom_bond_distance 
_geom_bond_site_symmetry_2 
_ccdc_geom_bond_type 
C1            H2   1.109       .  S
C1            C7   1.533       .  S
C1            C6   1.552       .  S
C1            C5   1.550       .  S
C3            H4   1.098       .  S
C3            C9   1.542       .  S
C3            C8   1.542       .  S
C3           C10   1.549       .  S
C5            C8   1.383       .  D
C5          C190   1.511       .  S
C6            C9   1.386       .  D
C6          C199   1.489       .  S
C7           C10   1.369       .  D
C7          C175   1.495       .  S
C8          C154   1.497       .  S
C9          C166   1.526       .  S
C10         C139   1.486       .  S
C11          H12   1.108       .  S
C11          C17   1.544       .  S
C11          C16   1.550       .  S
C11          C15   1.528       .  S
C13          H14   1.105       .  S
C13          C19   1.540       .  S
C13          C18   1.549       .  S
C13          C20   1.535       .  S
C15          C18   1.367       .  D
C15         C115   1.492       .  S
C16          C19   1.389       .  D
C16         C103   1.509       .  S
C17          C20   1.376       .  D
C17         C127   1.481       .  S
C18          C82   1.478       .  S
C19          C70   1.500       .  S
C20          C91   1.506       .  S
O21          C37   1.269       .  A
O21        Zn447   1.991       .  S
C22          O38   1.272       .  A
C22          O35   1.275       .  A
C22          C67   1.474       .  S
O23          C36   1.273       .  A
O23         Cd30   2.063       .  S
O24          C42   1.275       .  A
O24        Cd243   2.063       .  S
O25          C39   1.272       .  A
O25        Cd869   2.057   1_455  S
O26          C37   1.273       .  A
O26         Cd29   2.059       .  S
Zn27        O441   1.993   1_545  S
Zn27        O878   2.015       .  S
Zn27        O250   2.003   1_554  S
Zn27         O32   1.940       .  S
O28          C39   1.276       .  A
O28        Cd453   2.073       .  S
Cd29        O865   2.060       .  S
Cd29        O241   2.058   1_554  S
Cd29        O452   1.995   1_554  S
Cd30        O454   2.088   1_545  S
Cd30        O883   2.083       .  S
Cd30        O242   2.006       .  S
O31          C41   1.274       .  A
O31        Cd239   2.057       .  S
O32        Cd449   1.995   1_545  S
O32        Cd240   2.007   1_554  S
O32        Cd873   1.988       .  S
Cd33         O35   2.066       .  S
Cd33        O234   2.065   1_554  S
Cd33        O448   2.076   1_545  S
Cd33        O872   1.987   1_454  S
O34          C41   1.277       .  A
O34        Cd450   2.085       .  S
C36          O40   1.272       .  A
C36         C142   1.464       .  S
C37          C79   1.485       .  S
O38        Zn867   2.010   1_455  S
C39          C94   1.477       .  S
O40        Zn237   2.004       .  S
C41         C151   1.475       .  S
C42          O43   1.276       .  A
C42         C163   1.480       .  S
O43        Cd870   2.082   1_455  S
O44          C60   1.274       .  A
O44        Zn890   2.003   1_455  S
C45          O61   1.273       .  A
C45          O58   1.273       .  A
C45         C118   1.481       .  S
O46          C59   1.280       .  A
O46         Cd53   2.102       .  S
O47          C65   1.272       .  A
O47         Cd56   2.054       .  S
O48          C62   1.274       .  A
O48        Cd472   2.066       .  S
O49          C60   1.274       .  A
O49         Cd52   2.077       .  S
Zn50         O63   2.008       .  S
Zn50        O884   2.000       .  S
Zn50        O481   2.017   1_545  S
Zn50         O55   1.934       .  S
O51          C62   1.271       .  A
O51        Cd896   2.053   1_455  S
Cd52         O54   2.059       .  S
Cd52        O468   2.066   1_545  S
Cd52        O895   2.003   1_455  S
Cd53        O897   2.087       .  S
Cd53        O486   2.087   1_545  S
Cd53         O55   2.007       .  S
O54          C64   1.273       .  A
O55        Cd892   2.003       .  S
O55        Cd476   1.989   1_545  S
Cd56         O58   2.057       .  S
Cd56        O891   2.052       .  S
Cd56        O475   1.989       .  S
O57          C64   1.277       .  A
O57        Cd893   2.087   1_455  S
C59          O63   1.273       .  A
C59         C178   1.481       .  S
C60         C106   1.478       .  S
O61        Zn470   2.016       .  S
C62         C130   1.485       .  S
C64         C202   1.470       .  S
C65          O66   1.278       .  A
C65         C187   1.480       .  S
O66        Cd473   2.089       .  S
C67          C68   1.397       .  A
C67          C72   1.412       .  A
C68          C69   1.398       .  A
C68          H77   1.083       .  S
C69          C70   1.420       .  A
C69          S73   1.803       .  S
C70          C71   1.408       .  A
C71          C72   1.400       .  A
C71          H78   1.084       .  S
C72          S74   1.802   1_455  S
S73          H76   1.406       .  S
S74          H75   1.407       .  S
C79          C80   1.408       .  A
C79          C84   1.418       .  A
C80          C81   1.398       .  A
C80          H89   1.083       .  S
C81          C82   1.413       .  A
C81          S85   1.809       .  S
C82          C83   1.395       .  A
C83          C84   1.391       .  A
C83          H90   1.081       .  S
C84          S86   1.802       .  S
S85          H88   1.398       .  S
S86         H507   1.406       .  S
H87         S506   1.406       .  S
C91          C92   1.407       .  A
C91          C96   1.418       .  A
C92          C93   1.399       .  A
C92         H101   1.079       .  S
C93          C94   1.411       .  A
C93          S97   1.804   1_455  S
C94          C95   1.398       .  A
C95          C96   1.401       .  A
C95         H102   1.083       .  S
C96          S98   1.795       .  S
S97         H100   1.407       .  S
S98          H99   1.406       .  S
C103        C104   1.413       .  A
C103        C108   1.419       .  A
C104        C105   1.402       .  A
C104        H113   1.082       .  S
C105        C106   1.410       .  A
C105        S109   1.802       .  S
C106        C107   1.397       .  A
C107        C108   1.398       .  A
C107        H114   1.083       .  S
C108        S110   1.797       .  S
S109        H112   1.407       .  S
S110        H111   1.406       .  S
C115        C116   1.404       .  A
C115        C120   1.410       .  A
C116        C117   1.400       .  A
C116        H125   1.078       .  S
C117        C118   1.413       .  A
C117        S121   1.809       .  S
C118        C119   1.405       .  A
C119        C120   1.401       .  A
C119        H126   1.083       .  S
C120        S122   1.802       .  S
S121        H124   1.407       .  S
S122        H123   1.406       .  S
C127        C128   1.396       .  A
C127        C132   1.410       .  A
C128        C129   1.393       .  A
C128        H137   1.081       .  S
C129        C130   1.418       .  A
C129        S133   1.804   1_455  S
C130        C131   1.408       .  A
C131        C132   1.400       .  A
C131        H138   1.083       .  S
C132        S134   1.802       .  S
S133        H136   1.408   1_655  S
S134        H135   1.400       .  S
C139        C140   1.399       .  A
C139        C144   1.419       .  A
C140        C141   1.394       .  A
C140        H149   1.080       .  S
C141        C142   1.407       .  A
C141        S145   1.804       .  S
C142        C143   1.399       .  A
C143        C144   1.399       .  A
C143        H150   1.084       .  S
C144        S146   1.803       .  S
S145        H148   1.406   1_545  S
S146        H147   1.393       .  S
C151        C152   1.401       .  A
C151        C156   1.411       .  A
C152        C153   1.400       .  A
C152        H161   1.083       .  S
C153        C154   1.417       .  A
C153        S157   1.807       .  S
C154        C155   1.408       .  A
C155        C156   1.400       .  A
C155        H162   1.082       .  S
C156        S158   1.803       .  S
S157        H160   1.406       .  S
S158        H159   1.406       .  S
C163        C164   1.396       .  A
C163        C168   1.408       .  A
C164        C165   1.402       .  A
C164        H173   1.083       .  S
C165        C166   1.429       .  A
C165        S169   1.798       .  S
C166        C167   1.413       .  A
C167        C168   1.401       .  A
C167        H174   1.075       .  S
C168        S170   1.804       .  S
S169        H172   1.407       .  S
S170        H171   1.407       .  S
C175        C176   1.404       .  A
C175        C180   1.418       .  A
C176        C177   1.403       .  A
C176        H185   1.084       .  S
C177        C178   1.415       .  A
C177       S1021   1.804       .  S
C178        C179   1.401       .  A
C179        C180   1.401       .  A
C179        H186   1.084       .  S
C180        S182   1.803       .  S
S181       C1017   1.804       .  S
S181        H184   1.407   1_655  S
S182        H183   1.398       .  S
C187        C188   1.401       .  A
C187        C192   1.412       .  A
C188        C189   1.405       .  A
C188        H197   1.083       .  S
C189        C190   1.422       .  A
C189        S193   1.805       .  S
C190        C191   1.405       .  A
C191        C192   1.398       .  A
C191        H198   1.078       .  S
C192        S194   1.804       .  S
S193        H196   1.406       .  S
S194        H195   1.407       .  S
C199        C200   1.404       .  A
C199        C204   1.417       .  A
C200        C201   1.401       .  A
C200        H209   1.081       .  S
C201        C202   1.411       .  A
C201        S625   1.804   1_545  S
C202        C203   1.399       .  A
C203        C204   1.398       .  A
C203        H210   1.084       .  S
C204        S206   1.804       .  S
S205        C621   1.804       .  S
S205        H208   1.406       .  S
S206        H207   1.402       .  S
C211        H212   1.109       .  S
C211        C217   1.531       .  S
C211        C216   1.549       .  S
C211        C215   1.550       .  S
C213        H214   1.095       .  S
C213        C219   1.545       .  S
C213        C218   1.542       .  S
C213        C220   1.553       .  S
C215        C218   1.385       .  D
C215        C400   1.508       .  S
C216        C219   1.387       .  D
C216        C409   1.488       .  S
C217        C220   1.369       .  D
C217        C385   1.497       .  S
C218        C364   1.505       .  S
C219        C376   1.529       .  S
C220        C349   1.486       .  S
C221        H222   1.107       .  S
C221        C227   1.544       .  S
C221        C226   1.550       .  S
C221        C225   1.527       .  S
C223        H224   1.104       .  S
C223        C229   1.540       .  S
C223        C228   1.548       .  S
C223        C230   1.534       .  S
C225        C228   1.366       .  D
C225        C325   1.492       .  S
C226        C229   1.391       .  D
C226        C313   1.509       .  S
C227        C230   1.375       .  D
C227        C337   1.480       .  S
C228        C292   1.476       .  S
C229        C280   1.502       .  S
C230        C301   1.505       .  S
O231        C247   1.269       .  A
O231       Zn657   1.990       .  S
C232        O248   1.272       .  A
C232        O245   1.275       .  A
C232        C277   1.474       .  S
O233        C246   1.273       .  A
O233       Cd240   2.061       .  S
O234        C252   1.275       .  A
O235        C249   1.271       .  A
O235      Cd1079   2.055   1_455  S
O236        C247   1.273       .  A
O236       Cd239   2.056       .  S
Zn237       O651   1.990   1_545  S
Zn237      O1088   2.011       .  S
Zn237       O242   1.938       .  S
O238        C249   1.276       .  A
O238       Cd663   2.074       .  S
Cd239      O1075   2.056       .  S
Cd239       O662   1.995       .  S
Cd240       O664   2.090   1_545  S
Cd240      O1093   2.083       .  S
O241        C251   1.274       .  A
O242       Cd659   1.993   1_545  S
O242      Cd1083   1.987       .  S
Cd243       O658   2.073   1_545  S
Cd243       O245   2.066       .  S
Cd243      O1082   1.987   1_455  S
O244        C251   1.278       .  A
O244       Cd660   2.091       .  S
C246        O250   1.273       .  A
C246        C352   1.464       .  S
C247        C289   1.484       .  S
O248      Zn1077   2.012   1_455  S
C249        C304   1.476       .  S
C251        C361   1.478       .  S
C252        O253   1.276       .  A
C252        C373   1.482       .  S
O253      Cd1080   2.083   1_455  S
O254        C270   1.274       .  A
O254      Zn1100   2.004   1_455  S
C255        O271   1.273       .  A
C255        O268   1.273       .  A
C255        C328   1.481       .  S
O256        C269   1.280       .  A
O256       Cd263   2.103       .  S
O257        C275   1.272       .  A
O257       Cd266   2.054       .  S
O258        C272   1.274       .  A
O258       Cd682   2.066       .  S
O259        C270   1.273       .  A
O259       Cd262   2.072       .  S
Zn260      O1094   2.003       .  S
Zn260       O691   2.015   1_545  S
Zn260       O273   2.009       .  S
Zn260       O265   1.934       .  S
O261        C272   1.271       .  A
O261      Cd1106   2.051   1_455  S
Cd262       O678   2.065   1_545  S
Cd262       O264   2.058       .  S
Cd262      O1105   2.003   1_455  S
Cd263      O1107   2.090       .  S
Cd263       O696   2.087   1_545  S
Cd263       O265   2.007       .  S
O264        C274   1.273       .  A
O265      Cd1102   2.004       .  S
O265       Cd686   1.990   1_545  S
Cd266      O1101   2.050       .  S
Cd266       O268   2.058       .  S
Cd266       O685   1.990       .  S
O267        C274   1.278       .  A
O267      Cd1103   2.090   1_455  S
C269        O273   1.273       .  A
C269        C388   1.482       .  S
C270        C316   1.476       .  S
O271       Zn680   2.017       .  S
C272        C340   1.484       .  S
C274        C412   1.470       .  S
C275        O276   1.278       .  A
C275        C397   1.480       .  S
O276       Cd683   2.090       .  S
C277        C278   1.397       .  A
C277        C282   1.411       .  A
C278        C279   1.399       .  A
C278        H287   1.083       .  S
C279        C280   1.422       .  A
C279        S283   1.803       .  S
C280        C281   1.408       .  A
C281        C282   1.400       .  A
C281        H288   1.084       .  S
C282        S284   1.802   1_455  S
S283        H286   1.406       .  S
S284        H285   1.407       .  S
C289        C290   1.409       .  A
C289        C294   1.418       .  A
C290        C291   1.397       .  A
C290        H299   1.083       .  S
C291        C292   1.412       .  A
C291        S295   1.809       .  S
C292        C293   1.395       .  A
C293        C294   1.390       .  A
C293        H300   1.081       .  S
C294        S296   1.802       .  S
S295        H298   1.398       .  S
S296        H717   1.406       .  S
H297        S716   1.406       .  S
C301        C302   1.407       .  A
C301        C306   1.417       .  A
C302        C303   1.399       .  A
C302        H311   1.079       .  S
C303        C304   1.411       .  A
C303        S307   1.804   1_455  S
C304        C305   1.398       .  A
C305        C306   1.401       .  A
C305        H312   1.083       .  S
C306        S308   1.794       .  S
S307        H310   1.407       .  S
S308        H309   1.407       .  S
C313        C314   1.413       .  A
C313        C318   1.419       .  A
C314        C315   1.402       .  A
C314        H323   1.082       .  S
C315        C316   1.410       .  A
C315        S319   1.802       .  S
C316        C317   1.396       .  A
C317        C318   1.397       .  A
C317        H324   1.083       .  S
C318        S320   1.796       .  S
S319        H322   1.407       .  S
S320        H321   1.407       .  S
C325        C326   1.403       .  A
C325        C330   1.411       .  A
C326        C327   1.400       .  A
C326        H335   1.078       .  S
C327        C328   1.413       .  A
C327        S331   1.809       .  S
C328        C329   1.405       .  A
C329        C330   1.402       .  A
C329        H336   1.083       .  S
C330        S332   1.802       .  S
S331        H334   1.407       .  S
S332        H333   1.406       .  S
C337        C338   1.396       .  A
C337        C342   1.411       .  A
C338        C339   1.392       .  A
C338        H347   1.081       .  S
C339        C340   1.417       .  A
C339        S343   1.804   1_455  S
C340        C341   1.408       .  A
C341        C342   1.400       .  A
C341        H348   1.083       .  S
C342        S344   1.803       .  S
S343        H346   1.408   1_655  S
S344        H345   1.399       .  S
C349        C350   1.399       .  A
C349        C354   1.421       .  A
C350        C351   1.394       .  A
C350        H359   1.079       .  S
C351        C352   1.407       .  A
C351        S355   1.805       .  S
C352        C353   1.399       .  A
C353        C354   1.398       .  A
C353        H360   1.084       .  S
C354        S356   1.806       .  S
S355        H358   1.406   1_545  S
S356        H357   1.395       .  S
C361        C362   1.400       .  A
C361        C366   1.411       .  A
C362        C363   1.396       .  A
C362        H371   1.085       .  S
C363        C364   1.421       .  A
C363        S367   1.800       .  S
C364        C365   1.411       .  A
C365        C366   1.403       .  A
C365        H372   1.082       .  S
C366        S368   1.803       .  S
S367        H370   1.393       .  S
S368        H369   1.406       .  S
C373        C374   1.396       .  A
C373        C378   1.408       .  A
C374        C375   1.402       .  A
C374        H383   1.083       .  S
C375        C376   1.430       .  A
C375        S379   1.797       .  S
C376        C377   1.414       .  A
C377        C378   1.402       .  A
C377        H384   1.073       .  S
C378        S380   1.804       .  S
S379        H382   1.408       .  S
S380        H381   1.407       .  S
C385        C386   1.404       .  A
C385        C390   1.419       .  A
C386        C387   1.402       .  A
C386        H395   1.084       .  S
C387        C388   1.415       .  A
C387       S1231   1.804       .  S
C388        C389   1.402       .  A
C389        C390   1.402       .  A
C389        H396   1.084       .  S
C390        S392   1.804       .  S
S391       C1227   1.804       .  S
S391        H394   1.407   1_655  S
S392        H393   1.399       .  S
C397        C398   1.402       .  A
C397        C402   1.412       .  A
C398        C399   1.406       .  A
C398        H407   1.083       .  S
C399        C400   1.420       .  A
C399        S403   1.806       .  S
C400        C401   1.404       .  A
C401        C402   1.397       .  A
C401        H408   1.078       .  S
C402        S404   1.804       .  S
S403        H406   1.406       .  S
S404        H405   1.407       .  S
C409        C410   1.403       .  A
C409        C414   1.418       .  A
C410        C411   1.400       .  A
C410        H419   1.081       .  S
C411        C412   1.411       .  A
C411        S835   1.804   1_545  S
C412        C413   1.399       .  A
C413        C414   1.399       .  A
C413        H420   1.084       .  S
C414        S416   1.805       .  S
S415        C831   1.805       .  S
S415        H418   1.406       .  S
S416        H417   1.402       .  S
C421        H422   1.110       .  S
C421        C427   1.530       .  S
C421        C426   1.547       .  S
C421        C425   1.548       .  S
C423        H424   1.095       .  S
C423        C429   1.545       .  S
C423        C428   1.541       .  S
C423        C430   1.553       .  S
C425        C428   1.384       .  D
C425        C610   1.506       .  S
C426        C429   1.387       .  D
C426        C619   1.486       .  S
C427        C430   1.370       .  D
C427        C595   1.495       .  S
C428        C574   1.502       .  S
C429        C586   1.529       .  S
C430        C559   1.486       .  S
C431        H432   1.107       .  S
C431        C437   1.545       .  S
C431        C436   1.549       .  S
C431        C435   1.528       .  S
C433        H434   1.104       .  S
C433        C439   1.540       .  S
C433        C438   1.549       .  S
C433        C440   1.536       .  S
C435        C438   1.367       .  D
C435        C535   1.493       .  S
C436        C439   1.389       .  D
C436        C523   1.508       .  S
C437        C440   1.377       .  D
C437        C547   1.481       .  S
C438        C502   1.478       .  S
C439        C490   1.501       .  S
C440        C511   1.508       .  S
O441        C457   1.269       .  A
C442        O458   1.272       .  A
C442        O455   1.275       .  A
C442        C487   1.476       .  S
O443        C456   1.273       .  A
O443       Cd450   2.061       .  S
O444        C462   1.275       .  A
O444       Cd663   2.063       .  S
O445        C459   1.272       .  A
O445      Cd1289   2.059   1_455  S
O446        C457   1.273       .  A
O446       Cd449   2.060       .  S
Zn447      O1298   2.014       .  S
Zn447       O670   2.006   1_554  S
Zn447       O452   1.940   1_554  S
O448        C459   1.276       .  A
Cd449      O1285   2.058       .  S
Cd449       O661   2.062   1_554  S
Cd450      O1303   2.078       .  S
Cd450       O662   2.005       .  S
O451        C461   1.274       .  A
O451       Cd659   2.055       .  S
O452       Cd660   2.008       .  S
O452      Cd1293   1.989   1_556  S
Cd453       O654   2.064   1_554  S
Cd453       O455   2.068       .  S
Cd453      O1292   1.988   1_455  S
O454        C461   1.278       .  A
C456        O460   1.273       .  A
C456        C562   1.465       .  S
C457        C499   1.486       .  S
O458      Zn1287   2.013   1_455  S
C459        C514   1.478       .  S
O460       Zn657   2.004       .  S
C461        C571   1.476       .  S
C462        O463   1.276       .  A
C462        C583   1.481       .  S
O463      Cd1290   2.084   1_455  S
O464        C480   1.274       .  A
O464      Zn1310   2.003   1_455  S
C465        O481   1.273       .  A
C465        O478   1.273       .  A
C465        C538   1.481       .  S
O466        C479   1.279       .  A
O466       Cd473   2.099       .  S
O467        C485   1.272       .  A
O467       Cd476   2.055       .  S
O468        C482   1.274       .  A
O469        C480   1.273       .  A
O469       Cd472   2.073       .  S
Zn470      O1304   2.000       .  S
Zn470       O483   2.004       .  S
Zn470       O475   1.934       .  S
O471        C482   1.271       .  A
O471      Cd1316   2.053   1_455  S
Cd472       O474   2.056       .  S
Cd472      O1315   2.003   1_455  S
Cd473      O1317   2.089       .  S
Cd473       O475   2.006       .  S
O474        C484   1.273       .  A
O475      Cd1312   2.003       .  S
Cd476      O1311   2.053       .  S
Cd476       O478   2.059       .  S
O477        C484   1.277       .  A
O477      Cd1313   2.085   1_455  S
C479        O483   1.272       .  A
C479        C598   1.480       .  S
C480        C526   1.476       .  S
C482        C550   1.485       .  S
C484        C622   1.468       .  S
C485        O486   1.277       .  A
C485        C607   1.478       .  S
C487        C488   1.397       .  A
C487        C492   1.412       .  A
C488        C489   1.399       .  A
C488        H497   1.083       .  S
C489        C490   1.420       .  A
C489        S493   1.802       .  S
C490        C491   1.408       .  A
C491        C492   1.400       .  A
C491        H498   1.084       .  S
C492        S494   1.802   1_455  S
S493        H496   1.406       .  S
S494        H495   1.407       .  S
C499        C500   1.408       .  A
C499        C504   1.419       .  A
C500        C501   1.398       .  A
C500        H509   1.083       .  S
C501        C502   1.412       .  A
C501        S505   1.808       .  S
C502        C503   1.395       .  A
C503        C504   1.392       .  A
C503        H510   1.081       .  S
C504        S506   1.802   1_565  S
S505        H508   1.398       .  S
C511        C512   1.408       .  A
C511        C516   1.418       .  A
C512        C513   1.400       .  A
C512        H521   1.079       .  S
C513        C514   1.412       .  A
C513        S517   1.804   1_455  S
C514        C515   1.398       .  A
C515        C516   1.401       .  A
C515        H522   1.083       .  S
C516        S518   1.796       .  S
S517        H520   1.407       .  S
S518        H519   1.406       .  S
C523        C524   1.413       .  A
C523        C528   1.419       .  A
C524        C525   1.402       .  A
C524        H533   1.082       .  S
C525        C526   1.410       .  A
C525        S529   1.802       .  S
C526        C527   1.397       .  A
C527        C528   1.397       .  A
C527        H534   1.083       .  S
C528        S530   1.796       .  S
S529        H532   1.407       .  S
S530        H531   1.407       .  S
C535        C536   1.404       .  A
C535        C540   1.411       .  A
C536        C537   1.401       .  A
C536        H545   1.078       .  S
C537        C538   1.413       .  A
C537        S541   1.809   1_565  S
C538        C539   1.404       .  A
C539        C540   1.402       .  A
C539        H546   1.083       .  S
C540        S542   1.802       .  S
S541        H544   1.407       .  S
S542        H543   1.406       .  S
C547        C548   1.397       .  A
C547        C552   1.410       .  A
C548        C549   1.393       .  A
C548        H557   1.082       .  S
C549        C550   1.418       .  A
C549        S553   1.804   1_455  S
C550        C551   1.408       .  A
C551        C552   1.399       .  A
C551        H558   1.083       .  S
C552        S554   1.802       .  S
S553        H556   1.408   1_655  S
S554        H555   1.401       .  S
C559        C560   1.399       .  A
C559        C564   1.421       .  A
C560        C561   1.394       .  A
C560        H569   1.079       .  S
C561        C562   1.407       .  A
C561        S565   1.805       .  S
C562        C563   1.400       .  A
C563        C564   1.399       .  A
C563        H570   1.084       .  S
C564        S566   1.806       .  S
S565        H568   1.406       .  S
S566        H567   1.396       .  S
C571        C572   1.400       .  A
C571        C576   1.410       .  A
C572        C573   1.396       .  A
C572        H581   1.085       .  S
C573        C574   1.420       .  A
C573        S577   1.800       .  S
C574        C575   1.410       .  A
C575        C576   1.402       .  A
C575        H582   1.082       .  S
C576        S578   1.803       .  S
S577        H580   1.393       .  S
S578        H579   1.406       .  S
C583        C584   1.396       .  A
C583        C588   1.407       .  A
C584        C585   1.403       .  A
C584        H593   1.083       .  S
C585        C586   1.430       .  A
C585        S589   1.799       .  S
C586        C587   1.413       .  A
C587        C588   1.400       .  A
C587        H594   1.072       .  S
C588        S590   1.804       .  S
S589        H592   1.407       .  S
S590        H591   1.407       .  S
C595        C596   1.404       .  A
C595        C600   1.418       .  A
C596        C597   1.402       .  A
C596        H605   1.084       .  S
C597        C598   1.415       .  A
C597       S1441   1.804       .  S
C598        C599   1.401       .  A
C599        C600   1.401       .  A
C599        H606   1.084       .  S
C600        S602   1.803       .  S
S601       C1437   1.804       .  S
S601        H604   1.406   1_655  S
S602        H603   1.399       .  S
C607        C608   1.402       .  A
C607        C612   1.412       .  A
C608        C609   1.405       .  A
C608        H617   1.083       .  S
C609        C610   1.420       .  A
C609        S613   1.806       .  S
C610        C611   1.404       .  A
C611        C612   1.397       .  A
C611        H618   1.078       .  S
C612        S614   1.805       .  S
S613        H616   1.406       .  S
S614        H615   1.407       .  S
C619        C620   1.403       .  A
C619        C624   1.418       .  A
C620        C621   1.399       .  A
C620        H629   1.081       .  S
C621        C622   1.410       .  A
C622        C623   1.399       .  A
C623        C624   1.398       .  A
C623        H630   1.084       .  S
C624        S626   1.806       .  S
S625        H628   1.406       .  S
S626        H627   1.401       .  S
C631        H632   1.110       .  S
C631        C637   1.531       .  S
C631        C636   1.549       .  S
C631        C635   1.549       .  S
C633        H634   1.095       .  S
C633        C639   1.546       .  S
C633        C638   1.543       .  S
C633        C640   1.554       .  S
C635        C638   1.385       .  D
C635        C820   1.507       .  S
C636        C639   1.387       .  D
C636        C829   1.489       .  S
C637        C640   1.369       .  D
C637        C805   1.497       .  S
C638        C784   1.506       .  S
C639        C796   1.530       .  S
C640        C769   1.488       .  S
C641        H642   1.107       .  S
C641        C647   1.544       .  S
C641        C646   1.549       .  S
C641        C645   1.527       .  S
C643        H644   1.105       .  S
C643        C649   1.539       .  S
C643        C648   1.548       .  S
C643        C650   1.534       .  S
C645        C648   1.366       .  D
C645        C745   1.491       .  S
C646        C649   1.390       .  D
C646        C733   1.509       .  S
C647        C650   1.375       .  D
C647        C757   1.480       .  S
C648        C712   1.477       .  S
C649        C700   1.500       .  S
C650        C721   1.505       .  S
O651        C667   1.269       .  A
C652        O668   1.272       .  A
C652        O665   1.275       .  A
C652        C697   1.474       .  S
O653        C666   1.273       .  A
O653       Cd660   2.064       .  S
O654        C672   1.275       .  A
O655        C669   1.271       .  A
O655      Cd1499   2.055   1_455  S
O656        C667   1.273       .  A
O656       Cd659   2.056       .  S
Zn657      O1508   2.013       .  S
Zn657       O662   1.938       .  S
O658        C669   1.276       .  A
Cd659      O1495   2.056       .  S
Cd660      O1513   2.084       .  S
O661        C671   1.275       .  A
O662      Cd1503   1.987       .  S
Cd663       O665   2.064       .  S
Cd663      O1502   1.987   1_455  S
O664        C671   1.278       .  A
C666        O670   1.273       .  A
C666        C772   1.466       .  S
C667        C709   1.484       .  S
O668      Zn1497   2.012   1_455  S
C669        C724   1.477       .  S
C671        C781   1.479       .  S
C672        O673   1.276       .  A
C672        C793   1.482       .  S
O673      Cd1500   2.084   1_455  S
O674        C690   1.274       .  A
O674      Zn1520   2.004   1_455  S
C675        O691   1.273       .  A
C675        O688   1.273       .  A
C675        C748   1.480       .  S
O676        C689   1.280       .  A
O676       Cd683   2.104       .  S
O677        C695   1.272       .  A
O677       Cd686   2.055       .  S
O678        C692   1.274       .  A
O679        C690   1.274       .  A
O679       Cd682   2.073       .  S
Zn680      O1514   2.005       .  S
Zn680       O693   2.010       .  S
Zn680       O685   1.935       .  S
O681        C692   1.271       .  A
O681      Cd1526   2.052   1_455  S
Cd682       O684   2.059       .  S
Cd682      O1525   2.003   1_455  S
Cd683      O1527   2.089       .  S
Cd683       O685   2.008       .  S
O684        C694   1.273       .  A
O685      Cd1522   2.004       .  S
Cd686      O1521   2.051       .  S
Cd686       O688   2.057       .  S
O687        C694   1.277       .  A
O687      Cd1523   2.089   1_455  S
C689        O693   1.273       .  A
C689        C808   1.482       .  S
C690        C736   1.476       .  S
C692        C760   1.484       .  S
C694        C832   1.470       .  S
C695        O696   1.277       .  A
C695        C817   1.478       .  S
C697        C698   1.397       .  A
C697        C702   1.412       .  A
C698        C699   1.398       .  A
C698        H707   1.083       .  S
C699        C700   1.420       .  A
C699        S703   1.803       .  S
C700        C701   1.408       .  A
C701        C702   1.400       .  A
C701        H708   1.084       .  S
C702        S704   1.801   1_455  S
S703        H706   1.406       .  S
S704        H705   1.407       .  S
C709        C710   1.409       .  A
C709        C714   1.418       .  A
C710        C711   1.397       .  A
C710        H719   1.083       .  S
C711        C712   1.412       .  A
C711        S715   1.808       .  S
C712        C713   1.395       .  A
C713        C714   1.390       .  A
C713        H720   1.081       .  S
C714        S716   1.802   1_565  S
S715        H718   1.398       .  S
C721        C722   1.407       .  A
C721        C726   1.417       .  A
C722        C723   1.399       .  A
C722        H731   1.079       .  S
C723        C724   1.412       .  A
C723        S727   1.803   1_455  S
C724        C725   1.398       .  A
C725        C726   1.400       .  A
C725        H732   1.083       .  S
C726        S728   1.795       .  S
S727        H730   1.407       .  S
S728        H729   1.406       .  S
C733        C734   1.413       .  A
C733        C738   1.420       .  A
C734        C735   1.402       .  A
C734        H743   1.082       .  S
C735        C736   1.410       .  A
C735        S739   1.802       .  S
C736        C737   1.396       .  A
C737        C738   1.397       .  A
C737        H744   1.083       .  S
C738        S740   1.797       .  S
S739        H742   1.407       .  S
S740        H741   1.407       .  S
C745        C746   1.403       .  A
C745        C750   1.410       .  A
C746        C747   1.400       .  A
C746        H755   1.078       .  S
C747        C748   1.413       .  A
C747        S751   1.809   1_565  S
C748        C749   1.405       .  A
C749        C750   1.401       .  A
C749        H756   1.083       .  S
C750        S752   1.802       .  S
S751        H754   1.407       .  S
S752        H753   1.406       .  S
C757        C758   1.396       .  A
C757        C762   1.410       .  A
C758        C759   1.392       .  A
C758        H767   1.082       .  S
C759        C760   1.417       .  A
C759        S763   1.804   1_455  S
C760        C761   1.408       .  A
C761        C762   1.399       .  A
C761        H768   1.083       .  S
C762        S764   1.803       .  S
S763        H766   1.408   1_655  S
S764        H765   1.400       .  S
C769        C770   1.399       .  A
C769        C774   1.422       .  A
C770        C771   1.394       .  A
C770        H779   1.079       .  S
C771        C772   1.407       .  A
C771        S775   1.805       .  S
C772        C773   1.399       .  A
C773        C774   1.399       .  A
C773        H780   1.084       .  S
C774        S776   1.806       .  S
S775        H778   1.406       .  S
S776        H777   1.395       .  S
C781        C782   1.400       .  A
C781        C786   1.412       .  A
C782        C783   1.396       .  A
C782        H791   1.084       .  S
C783        C784   1.421       .  A
C783        S787   1.800       .  S
C784        C785   1.411       .  A
C785        C786   1.403       .  A
C785        H792   1.082       .  S
C786        S788   1.803       .  S
S787        H790   1.393       .  S
S788        H789   1.406       .  S
C793        C794   1.396       .  A
C793        C798   1.407       .  A
C794        C795   1.403       .  A
C794        H803   1.083       .  S
C795        C796   1.430       .  A
C795        S799   1.798       .  S
C796        C797   1.414       .  A
C797        C798   1.401       .  A
C797        H804   1.073       .  S
C798        S800   1.804       .  S
S799        H802   1.407       .  S
S800        H801   1.407       .  S
C805        C806   1.404       .  A
C805        C810   1.418       .  A
C806        C807   1.403       .  A
C806        H815   1.084       .  S
C807        C808   1.415       .  A
C807       S1651   1.804       .  S
C808        C809   1.402       .  A
C809        C810   1.402       .  A
C809        H816   1.084       .  S
C810        S812   1.804       .  S
S811       C1647   1.804       .  S
S811        H814   1.407   1_655  S
S812        H813   1.399       .  S
C817        C818   1.401       .  A
C817        C822   1.412       .  A
C818        C819   1.405       .  A
C818        H827   1.083       .  S
C819        C820   1.420       .  A
C819        S823   1.806       .  S
C820        C821   1.405       .  A
C821        C822   1.397       .  A
C821        H828   1.078       .  S
C822        S824   1.805       .  S
S823        H826   1.406       .  S
S824        H825   1.407       .  S
C829        C830   1.404       .  A
C829        C834   1.418       .  A
C830        C831   1.401       .  A
C830        H839   1.081       .  S
C831        C832   1.411       .  A
C832        C833   1.399       .  A
C833        C834   1.398       .  A
C833        H840   1.084       .  S
C834        S836   1.805       .  S
S835        H838   1.406       .  S
S836        H837   1.402       .  S
C841        H842   1.109       .  S
C841        C847   1.530       .  S
C841        C846   1.548       .  S
C841        C845   1.549       .  S
C843        H844   1.095       .  S
C843        C849   1.545       .  S
C843        C848   1.541       .  S
C843        C850   1.552       .  S
C845        C848   1.385       .  D
C845       C1030   1.508       .  S
C846        C849   1.387       .  D
C846       C1039   1.487       .  S
C847        C850   1.369       .  D
C847       C1015   1.495       .  S
C848        C994   1.503       .  S
C849       C1006   1.528       .  S
C850        C979   1.486       .  S
C851        H852   1.107       .  S
C851        C857   1.544       .  S
C851        C856   1.550       .  S
C851        C855   1.527       .  S
C853        H854   1.105       .  S
C853        C859   1.540       .  S
C853        C858   1.549       .  S
C853        C860   1.535       .  S
C855        C858   1.366       .  D
C855        C955   1.492       .  S
C856        C859   1.390       .  D
C856        C943   1.507       .  S
C857        C860   1.376       .  D
C857        C967   1.480       .  S
C858        C922   1.477       .  S
C859        C910   1.501       .  S
C860        C931   1.506       .  S
O861        C877   1.269       .  A
O861      Zn1287   1.990       .  S
C862        O878   1.272       .  A
C862        O875   1.275       .  A
C862        C907   1.476       .  S
O863        C876   1.273       .  A
O863       Cd870   2.061       .  S
O864        C882   1.275       .  A
O864      Cd1083   2.060       .  S
O865        C879   1.272       .  A
O866        C877   1.273       .  A
O866       Cd869   2.060       .  S
Zn867      O1281   1.988   1_545  S
Zn867      O1090   2.003   1_554  S
Zn867       O872   1.939   1_554  S
O868        C879   1.276       .  A
O868      Cd1293   2.075       .  S
Cd869      O1081   2.061   1_554  S
Cd869      O1292   1.995       .  S
Cd870      O1294   2.088   1_545  S
Cd870      O1082   2.006       .  S
O871        C881   1.274       .  A
O871      Cd1079   2.055       .  S
O872      Cd1289   1.994   1_546  S
O872      Cd1080   2.006       .  S
Cd873      O1074   2.062   1_554  S
Cd873      O1288   2.071   1_545  S
Cd873       O875   2.067       .  S
O874        C881   1.277       .  A
O874      Cd1290   2.087       .  S
C876        O880   1.272       .  A
C876        C982   1.464       .  S
C877        C919   1.485       .  S
C879        C934   1.479       .  S
O880      Zn1077   2.002       .  S
C881        C991   1.476       .  S
C882        O883   1.276       .  A
C882       C1003   1.480       .  S
O884        C900   1.274       .  A
C885        O901   1.273       .  A
C885        O898   1.273       .  A
C885        C958   1.481       .  S
O886        C899   1.279       .  A
O886       Cd893   2.099       .  S
O887        C905   1.272       .  A
O887       Cd896   2.055       .  S
O888        C902   1.274       .  A
O888      Cd1312   2.064       .  S
O889        C900   1.273       .  A
O889       Cd892   2.071       .  S
Zn890      O1321   2.015   1_545  S
Zn890       O903   2.006       .  S
Zn890       O895   1.934       .  S
O891        C902   1.271       .  A
Cd892      O1308   2.065   1_545  S
Cd892       O894   2.057       .  S
Cd893      O1326   2.088   1_545  S
Cd893       O895   2.007       .  S
O894        C904   1.273       .  A
O895      Cd1316   1.990   1_545  S
Cd896       O898   2.058       .  S
Cd896      O1315   1.989       .  S
O897        C904   1.277       .  A
C899        O903   1.273       .  A
C899       C1018   1.480       .  S
C900        C946   1.475       .  S
O901      Zn1310   2.017       .  S
C902        C970   1.485       .  S
C904       C1042   1.469       .  S
C905        O906   1.277       .  A
C905       C1027   1.480       .  S
O906      Cd1313   2.088       .  S
C907        C908   1.397       .  A
C907        C912   1.412       .  A
C908        C909   1.399       .  A
C908        H917   1.083       .  S
C909        C910   1.420       .  A
C909        S913   1.803       .  S
C910        C911   1.408       .  A
C911        C912   1.401       .  A
C911        H918   1.084       .  S
C912        S914   1.802       .  S
S913        H916   1.406       .  S
S914        H915   1.407       .  S
C919        C920   1.408       .  A
C919        C924   1.419       .  A
C920        C921   1.398       .  A
C920        H929   1.083       .  S
C921        C922   1.413       .  A
C921        S925   1.808       .  S
C922        C923   1.395       .  A
C923        C924   1.391       .  A
C923        H930   1.081       .  S
C924        S926   1.801       .  S
S925        H928   1.398       .  S
S926       H1347   1.406       .  S
H927       S1346   1.406       .  S
C931        C932   1.407       .  A
C931        C936   1.417       .  A
C932        C933   1.400       .  A
C932        H941   1.079       .  S
C933        C934   1.412       .  A
C933        S937   1.803       .  S
C934        C935   1.399       .  A
C935        C936   1.401       .  A
C935        H942   1.083       .  S
C936        S938   1.794       .  S
S937        H940   1.407       .  S
S938        H939   1.407       .  S
C943        C944   1.412       .  A
C943        C948   1.419       .  A
C944        C945   1.401       .  A
C944        H953   1.082       .  S
C945        C946   1.410       .  A
C945        S949   1.802       .  S
C946        C947   1.397       .  A
C947        C948   1.397       .  A
C947        H954   1.083       .  S
C948        S950   1.797       .  S
S949        H952   1.407       .  S
S950        H951   1.407       .  S
C955        C956   1.403       .  A
C955        C960   1.410       .  A
C956        C957   1.401       .  A
C956        H965   1.078       .  S
C957        C958   1.413       .  A
C957        S961   1.809       .  S
C958        C959   1.405       .  A
C959        C960   1.402       .  A
C959        H966   1.083       .  S
C960        S962   1.802       .  S
S961        H964   1.407       .  S
S962        H963   1.406       .  S
C967        C968   1.397       .  A
C967        C972   1.410       .  A
C968        C969   1.393       .  A
C968        H977   1.082       .  S
C969        C970   1.418       .  A
C969        S973   1.804       .  S
C970        C971   1.408       .  A
C971        C972   1.399       .  A
C971        H978   1.083       .  S
C972        S974   1.802       .  S
S973        H976   1.408       .  S
S974        H975   1.400       .  S
C979        C980   1.399       .  A
C979        C984   1.421       .  A
C980        C981   1.394       .  A
C980        H989   1.079       .  S
C981        C982   1.407       .  A
C981        S985   1.805       .  S
C982        C983   1.399       .  A
C983        C984   1.398       .  A
C983        H990   1.084       .  S
C984        S986   1.806       .  S
S985        H988   1.406   1_545  S
S986        H987   1.396       .  S
C991        C992   1.399       .  A
C991        C996   1.411       .  A
C992        C993   1.395       .  A
C992       H1001   1.085       .  S
C993        C994   1.421       .  A
C993        S997   1.800       .  S
C994        C995   1.410       .  A
C995        C996   1.402       .  A
C995       H1002   1.082       .  S
C996        S998   1.803       .  S
S997       H1000   1.392       .  S
S998        H999   1.407       .  S
C1003      C1004   1.396       .  A
C1003      C1008   1.406       .  A
C1004      C1005   1.403       .  A
C1004      H1013   1.083       .  S
C1005      C1006   1.431       .  A
C1005      S1009   1.801       .  S
C1006      C1007   1.413       .  A
C1007      C1008   1.400       .  A
C1007      H1014   1.073       .  S
C1008      S1010   1.804       .  S
S1009      H1012   1.406       .  S
S1010      H1011   1.407       .  S
C1015      C1016   1.404       .  A
C1015      C1020   1.418       .  A
C1016      C1017   1.402       .  A
C1016      H1025   1.084       .  S
C1017      C1018   1.415       .  A
C1018      C1019   1.401       .  A
C1019      C1020   1.401       .  A
C1019      H1026   1.084       .  S
C1020      S1022   1.804       .  S
S1021      H1024   1.406       .  S
S1022      H1023   1.398       .  S
C1027      C1028   1.402       .  A
C1027      C1032   1.412       .  A
C1028      C1029   1.405       .  A
C1028      H1037   1.083       .  S
C1029      C1030   1.420       .  A
C1029      S1033   1.805       .  S
C1030      C1031   1.405       .  A
C1031      C1032   1.397       .  A
C1031      H1038   1.078       .  S
C1032      S1034   1.804       .  S
S1033      H1036   1.407   1_655  S
S1034      H1035   1.407       .  S
C1039      C1040   1.403       .  A
C1039      C1044   1.418       .  A
C1040      C1041   1.400       .  A
C1040      H1049   1.081       .  S
C1041      C1042   1.411       .  A
C1041      S1465   1.804   1_545  S
C1042      C1043   1.399       .  A
C1043      C1044   1.398       .  A
C1043      H1050   1.084       .  S
C1044      S1046   1.805       .  S
S1045      C1461   1.804       .  S
S1045      H1048   1.406       .  S
S1046      H1047   1.402       .  S
C1051      H1052   1.110       .  S
C1051      C1057   1.531       .  S
C1051      C1056   1.549       .  S
C1051      C1055   1.550       .  S
C1053      H1054   1.094       .  S
C1053      C1059   1.545       .  S
C1053      C1058   1.541       .  S
C1053      C1060   1.552       .  S
C1055      C1058   1.384       .  D
C1055      C1240   1.506       .  S
C1056      C1059   1.388       .  D
C1056      C1249   1.489       .  S
C1057      C1060   1.369       .  D
C1057      C1225   1.497       .  S
C1058      C1204   1.505       .  S
C1059      C1216   1.530       .  S
C1060      C1189   1.486       .  S
C1061      H1062   1.108       .  S
C1061      C1067   1.544       .  S
C1061      C1066   1.550       .  S
C1061      C1065   1.527       .  S
C1063      H1064   1.105       .  S
C1063      C1069   1.539       .  S
C1063      C1068   1.548       .  S
C1063      C1070   1.534       .  S
C1065      C1068   1.367       .  D
C1065      C1165   1.492       .  S
C1066      C1069   1.389       .  D
C1066      C1153   1.508       .  S
C1067      C1070   1.375       .  D
C1067      C1177   1.480       .  S
C1068      C1132   1.477       .  S
C1069      C1120   1.500       .  S
C1070      C1141   1.505       .  S
O1071      C1087   1.269       .  A
O1071     Zn1497   1.989       .  S
C1072      O1088   1.272       .  A
C1072      O1085   1.275       .  A
C1072      C1117   1.474       .  S
O1073      C1086   1.273       .  A
O1073     Cd1080   2.060       .  S
O1074      C1092   1.275       .  A
O1075      C1089   1.271       .  A
O1076      C1087   1.273       .  A
O1076     Cd1079   2.057       .  S
Zn1077     O1491   1.989   1_545  S
Zn1077     O1082   1.939       .  S
O1078      C1089   1.276       .  A
O1078     Cd1503   2.074       .  S
Cd1079     O1502   1.994       .  S
Cd1080     O1504   2.087   1_545  S
O1081      C1091   1.275       .  A
O1082     Cd1499   1.995   1_545  S
Cd1083     O1498   2.075   1_545  S
Cd1083     O1085   2.064       .  S
O1084      C1091   1.277       .  A
O1084     Cd1500   2.089       .  S
C1086      O1090   1.272       .  A
C1086      C1192   1.464       .  S
C1087      C1129   1.484       .  S
C1089      C1144   1.477       .  S
C1091      C1201   1.478       .  S
C1092      O1093   1.276       .  A
C1092      C1213   1.481       .  S
O1094      C1110   1.274       .  A
C1095      O1111   1.273       .  A
C1095      O1108   1.272       .  A
C1095      C1168   1.480       .  S
O1096      C1109   1.280       .  A
O1096     Cd1103   2.105       .  S
O1097      C1115   1.272       .  A
O1097     Cd1106   2.053       .  S
O1098      C1112   1.274       .  A
O1098     Cd1522   2.067       .  S
O1099      C1110   1.274       .  A
O1099     Cd1102   2.074       .  S
Zn1100     O1531   2.014   1_545  S
Zn1100     O1113   2.008       .  S
Zn1100     O1105   1.933       .  S
O1101      C1112   1.271       .  A
Cd1102     O1518   2.066   1_545  S
Cd1102     O1104   2.060       .  S
Cd1103     O1536   2.089   1_545  S
Cd1103     O1105   2.007       .  S
O1104      C1114   1.273       .  A
O1105     Cd1526   1.990   1_545  S
Cd1106     O1108   2.056       .  S
Cd1106     O1525   1.990       .  S
O1107      C1114   1.277       .  A
C1109      O1113   1.273       .  A
C1109      C1228   1.483       .  S
C1110      C1156   1.476       .  S
O1111     Zn1520   2.016       .  S
C1112      C1180   1.485       .  S
C1114      C1252   1.471       .  S
C1115      O1116   1.277       .  A
C1115      C1237   1.478       .  S
O1116     Cd1523   2.087       .  S
C1117      C1118   1.397       .  A
C1117      C1122   1.411       .  A
C1118      C1119   1.398       .  A
C1118      H1127   1.083       .  S
C1119      C1120   1.420       .  A
C1119      S1123   1.803       .  S
C1120      C1121   1.408       .  A
C1121      C1122   1.400       .  A
C1121      H1128   1.084       .  S
C1122      S1124   1.802       .  S
S1123      H1126   1.406       .  S
S1124      H1125   1.407       .  S
C1129      C1130   1.409       .  A
C1129      C1134   1.418       .  A
C1130      C1131   1.398       .  A
C1130      H1139   1.083       .  S
C1131      C1132   1.413       .  A
C1131      S1135   1.808       .  S
C1132      C1133   1.394       .  A
C1133      C1134   1.390       .  A
C1133      H1140   1.081       .  S
C1134      S1136   1.802       .  S
S1135      H1138   1.398       .  S
S1136      H1557   1.406       .  S
H1137      S1556   1.406       .  S
C1141      C1142   1.407       .  A
C1141      C1146   1.417       .  A
C1142      C1143   1.399       .  A
C1142      H1151   1.079       .  S
C1143      C1144   1.412       .  A
C1143      S1147   1.803       .  S
C1144      C1145   1.398       .  A
C1145      C1146   1.400       .  A
C1145      H1152   1.083       .  S
C1146      S1148   1.794       .  S
S1147      H1150   1.407       .  S
S1148      H1149   1.407       .  S
C1153      C1154   1.413       .  A
C1153      C1158   1.419       .  A
C1154      C1155   1.402       .  A
C1154      H1163   1.082       .  S
C1155      C1156   1.410       .  A
C1155      S1159   1.802       .  S
C1156      C1157   1.397       .  A
C1157      C1158   1.397       .  A
C1157      H1164   1.083       .  S
C1158      S1160   1.796       .  S
S1159      H1162   1.407       .  S
S1160      H1161   1.407       .  S
C1165      C1166   1.403       .  A
C1165      C1170   1.410       .  A
C1166      C1167   1.399       .  A
C1166      H1175   1.078       .  S
C1167      C1168   1.412       .  A
C1167      S1171   1.809       .  S
C1168      C1169   1.405       .  A
C1169      C1170   1.402       .  A
C1169      H1176   1.083       .  S
C1170      S1172   1.802       .  S
S1171      H1174   1.407       .  S
S1172      H1173   1.406       .  S
C1177      C1178   1.396       .  A
C1177      C1182   1.410       .  A
C1178      C1179   1.392       .  A
C1178      H1187   1.081       .  S
C1179      C1180   1.418       .  A
C1179      S1183   1.804       .  S
C1180      C1181   1.408       .  A
C1181      C1182   1.400       .  A
C1181      H1188   1.083       .  S
C1182      S1184   1.802       .  S
S1183      H1186   1.408       .  S
S1184      H1185   1.400       .  S
C1189      C1190   1.399       .  A
C1189      C1194   1.421       .  A
C1190      C1191   1.394       .  A
C1190      H1199   1.079       .  S
C1191      C1192   1.407       .  A
C1191      S1195   1.805       .  S
C1192      C1193   1.399       .  A
C1193      C1194   1.398       .  A
C1193      H1200   1.084       .  S
C1194      S1196   1.806       .  S
S1195      H1198   1.406   1_545  S
S1196      H1197   1.395       .  S
C1201      C1202   1.400       .  A
C1201      C1206   1.411       .  A
C1202      C1203   1.396       .  A
C1202      H1211   1.085       .  S
C1203      C1204   1.421       .  A
C1203      S1207   1.800       .  S
C1204      C1205   1.411       .  A
C1205      C1206   1.403       .  A
C1205      H1212   1.082       .  S
C1206      S1208   1.803       .  S
S1207      H1210   1.393       .  S
S1208      H1209   1.406       .  S
C1213      C1214   1.396       .  A
C1213      C1218   1.406       .  A
C1214      C1215   1.404       .  A
C1214      H1223   1.082       .  S
C1215      C1216   1.432       .  A
C1215      S1219   1.802       .  S
C1216      C1217   1.413       .  A
C1217      C1218   1.400       .  A
C1217      H1224   1.073       .  S
C1218      S1220   1.804       .  S
S1219      H1222   1.406       .  S
S1220      H1221   1.407       .  S
C1225      C1226   1.404       .  A
C1225      C1230   1.419       .  A
C1226      C1227   1.402       .  A
C1226      H1235   1.084       .  S
C1227      C1228   1.415       .  A
C1228      C1229   1.402       .  A
C1229      C1230   1.403       .  A
C1229      H1236   1.084       .  S
C1230      S1232   1.804       .  S
S1231      H1234   1.407       .  S
S1232      H1233   1.399       .  S
C1237      C1238   1.401       .  A
C1237      C1242   1.412       .  A
C1238      C1239   1.404       .  A
C1238      H1247   1.083       .  S
C1239      C1240   1.420       .  A
C1239      S1243   1.805       .  S
C1240      C1241   1.404       .  A
C1241      C1242   1.397       .  A
C1241      H1248   1.078       .  S
C1242      S1244   1.805       .  S
S1243      H1246   1.406   1_655  S
S1244      H1245   1.407       .  S
C1249      C1250   1.404       .  A
C1249      C1254   1.418       .  A
C1250      C1251   1.401       .  A
C1250      H1259   1.081       .  S
C1251      C1252   1.411       .  A
C1251      S1675   1.805   1_545  S
C1252      C1253   1.399       .  A
C1253      C1254   1.398       .  A
C1253      H1260   1.084       .  S
C1254      S1256   1.805       .  S
S1255      C1671   1.804       .  S
S1255      H1258   1.406       .  S
S1256      H1257   1.402       .  S
C1261      H1262   1.109       .  S
C1261      C1267   1.533       .  S
C1261      C1266   1.551       .  S
C1261      C1265   1.549       .  S
C1263      H1264   1.097       .  S
C1263      C1269   1.543       .  S
C1263      C1268   1.542       .  S
C1263      C1270   1.549       .  S
C1265      C1268   1.383       .  D
C1265      C1450   1.509       .  S
C1266      C1269   1.387       .  D
C1266      C1459   1.489       .  S
C1267      C1270   1.369       .  D
C1267      C1435   1.495       .  S
C1268      C1414   1.499       .  S
C1269      C1426   1.526       .  S
C1270      C1399   1.486       .  S
C1271      H1272   1.107       .  S
C1271      C1277   1.544       .  S
C1271      C1276   1.550       .  S
C1271      C1275   1.526       .  S
C1273      H1274   1.104       .  S
C1273      C1279   1.540       .  S
C1273      C1278   1.549       .  S
C1273      C1280   1.534       .  S
C1275      C1278   1.366       .  D
C1275      C1375   1.492       .  S
C1276      C1279   1.390       .  D
C1276      C1363   1.508       .  S
C1277      C1280   1.376       .  D
C1277      C1387   1.480       .  S
C1278      C1342   1.476       .  S
C1279      C1330   1.502       .  S
C1280      C1351   1.506       .  S
O1281      C1297   1.268       .  A
C1282      O1298   1.272       .  A
C1282      O1295   1.275       .  A
C1282      C1327   1.475       .  S
O1283      C1296   1.273       .  A
O1283     Cd1290   2.062       .  S
O1284      C1302   1.275       .  A
O1284     Cd1503   2.063       .  S
O1285      C1299   1.272       .  A
O1286      C1297   1.273       .  A
O1286     Cd1289   2.057       .  S
Zn1287     O1510   2.004   1_554  S
Zn1287     O1292   1.940       .  S
O1288      C1299   1.276       .  A
Cd1289     O1501   2.057   1_554  S
Cd1290     O1502   2.006       .  S
O1291      C1301   1.274       .  A
O1291     Cd1499   2.058       .  S
O1292     Cd1500   2.006   1_554  S
Cd1293     O1494   2.062   1_554  S
Cd1293     O1295   2.067       .  S
O1294      C1301   1.277       .  A
C1296      O1300   1.272       .  A
C1296      C1402   1.463       .  S
C1297      C1339   1.484       .  S
C1299      C1354   1.476       .  S
O1300     Zn1497   2.002       .  S
C1301      C1411   1.476       .  S
C1302      O1303   1.276       .  A
C1302      C1423   1.480       .  S
O1304      C1320   1.274       .  A
C1305      O1321   1.273       .  A
C1305      O1318   1.273       .  A
C1305      C1378   1.481       .  S
O1306      C1319   1.279       .  A
O1306     Cd1313   2.101       .  S
O1307      C1325   1.272       .  A
O1307     Cd1316   2.055       .  S
O1308      C1322   1.274       .  A
O1309      C1320   1.274       .  A
O1309     Cd1312   2.073       .  S
Zn1310     O1323   2.010       .  S
Zn1310     O1315   1.934       .  S
O1311      C1322   1.271       .  A
Cd1312     O1314   2.058       .  S
Cd1313     O1315   2.006       .  S
O1314      C1324   1.273       .  A
Cd1316     O1318   2.058       .  S
O1317      C1324   1.277       .  A
C1319      O1323   1.273       .  A
C1319      C1438   1.481       .  S
C1320      C1366   1.475       .  S
C1322      C1390   1.485       .  S
C1324      C1462   1.470       .  S
C1325      O1326   1.277       .  A
C1325      C1447   1.480       .  S
C1327      C1328   1.397       .  A
C1327      C1332   1.411       .  A
C1328      C1329   1.399       .  A
C1328      H1337   1.083       .  S
C1329      C1330   1.421       .  A
C1329      S1333   1.803       .  S
C1330      C1331   1.409       .  A
C1331      C1332   1.401       .  A
C1331      H1338   1.084       .  S
C1332      S1334   1.802       .  S
S1333      H1336   1.406       .  S
S1334      H1335   1.407       .  S
C1339      C1340   1.408       .  A
C1339      C1344   1.418       .  A
C1340      C1341   1.397       .  A
C1340      H1349   1.083       .  S
C1341      C1342   1.412       .  A
C1341      S1345   1.808       .  S
C1342      C1343   1.395       .  A
C1343      C1344   1.390       .  A
C1343      H1350   1.081       .  S
C1344      S1346   1.802   1_565  S
S1345      H1348   1.398       .  S
C1351      C1352   1.407       .  A
C1351      C1356   1.418       .  A
C1352      C1353   1.399       .  A
C1352      H1361   1.079       .  S
C1353      C1354   1.411       .  A
C1353      S1357   1.804       .  S
C1354      C1355   1.398       .  A
C1355      C1356   1.401       .  A
C1355      H1362   1.083       .  S
C1356      S1358   1.795       .  S
S1357      H1360   1.407       .  S
S1358      H1359   1.406       .  S
C1363      C1364   1.413       .  A
C1363      C1368   1.419       .  A
C1364      C1365   1.401       .  A
C1364      H1373   1.082       .  S
C1365      C1366   1.409       .  A
C1365      S1369   1.802       .  S
C1366      C1367   1.397       .  A
C1367      C1368   1.397       .  A
C1367      H1374   1.083       .  S
C1368      S1370   1.797       .  S
S1369      H1372   1.407       .  S
S1370      H1371   1.407       .  S
C1375      C1376   1.404       .  A
C1375      C1380   1.411       .  A
C1376      C1377   1.401       .  A
C1376      H1385   1.078       .  S
C1377      C1378   1.413       .  A
C1377      S1381   1.809   1_565  S
C1378      C1379   1.404       .  A
C1379      C1380   1.401       .  A
C1379      H1386   1.083       .  S
C1380      S1382   1.802       .  S
S1381      H1384   1.407       .  S
S1382      H1383   1.406       .  S
C1387      C1388   1.396       .  A
C1387      C1392   1.410       .  A
C1388      C1389   1.392       .  A
C1388      H1397   1.082       .  S
C1389      C1390   1.418       .  A
C1389      S1393   1.804       .  S
C1390      C1391   1.408       .  A
C1391      C1392   1.400       .  A
C1391      H1398   1.083       .  S
C1392      S1394   1.803       .  S
S1393      H1396   1.408       .  S
S1394      H1395   1.400       .  S
C1399      C1400   1.400       .  A
C1399      C1404   1.419       .  A
C1400      C1401   1.394       .  A
C1400      H1409   1.080       .  S
C1401      C1402   1.407       .  A
C1401      S1405   1.805       .  S
C1402      C1403   1.399       .  A
C1403      C1404   1.398       .  A
C1403      H1410   1.084       .  S
C1404      S1406   1.803       .  S
S1405      H1408   1.406       .  S
S1406      H1407   1.393       .  S
C1411      C1412   1.401       .  A
C1411      C1416   1.411       .  A
C1412      C1413   1.401       .  A
C1412      H1421   1.083       .  S
C1413      C1414   1.417       .  A
C1413      S1417   1.807       .  S
C1414      C1415   1.409       .  A
C1415      C1416   1.401       .  A
C1415      H1422   1.082       .  S
C1416      S1418   1.803       .  S
S1417      H1420   1.406       .  S
S1418      H1419   1.406       .  S
C1423      C1424   1.396       .  A
C1423      C1428   1.407       .  A
C1424      C1425   1.402       .  A
C1424      H1433   1.083       .  S
C1425      C1426   1.430       .  A
C1425      S1429   1.798       .  S
C1426      C1427   1.413       .  A
C1427      C1428   1.401       .  A
C1427      H1434   1.074       .  S
C1428      S1430   1.804       .  S
S1429      H1432   1.407       .  S
S1430      H1431   1.407       .  S
C1435      C1436   1.404       .  A
C1435      C1440   1.418       .  A
C1436      C1437   1.403       .  A
C1436      H1445   1.084       .  S
C1437      C1438   1.415       .  A
C1438      C1439   1.401       .  A
C1439      C1440   1.402       .  A
C1439      H1446   1.084       .  S
C1440      S1442   1.804       .  S
S1441      H1444   1.407       .  S
S1442      H1443   1.398       .  S
C1447      C1448   1.401       .  A
C1447      C1452   1.412       .  A
C1448      C1449   1.405       .  A
C1448      H1457   1.083       .  S
C1449      C1450   1.421       .  A
C1449      S1453   1.805       .  S
C1450      C1451   1.405       .  A
C1451      C1452   1.398       .  A
C1451      H1458   1.078       .  S
C1452      S1454   1.804       .  S
S1453      H1456   1.406   1_655  S
S1454      H1455   1.407       .  S
C1459      C1460   1.404       .  A
C1459      C1464   1.418       .  A
C1460      C1461   1.401       .  A
C1460      H1469   1.081       .  S
C1461      C1462   1.411       .  A
C1462      C1463   1.399       .  A
C1463      C1464   1.398       .  A
C1463      H1470   1.084       .  S
C1464      S1466   1.805       .  S
S1465      H1468   1.406       .  S
S1466      H1467   1.402       .  S
C1471      H1472   1.109       .  S
C1471      C1477   1.531       .  S
C1471      C1476   1.550       .  S
C1471      C1475   1.549       .  S
C1473      H1474   1.094       .  S
C1473      C1479   1.545       .  S
C1473      C1478   1.541       .  S
C1473      C1480   1.552       .  S
C1475      C1478   1.384       .  D
C1475      C1660   1.506       .  S
C1476      C1479   1.388       .  D
C1476      C1669   1.489       .  S
C1477      C1480   1.369       .  D
C1477      C1645   1.497       .  S
C1478      C1624   1.504       .  S
C1479      C1636   1.530       .  S
C1480      C1609   1.485       .  S
C1481      H1482   1.108       .  S
C1481      C1487   1.545       .  S
C1481      C1486   1.550       .  S
C1481      C1485   1.527       .  S
C1483      H1484   1.105       .  S
C1483      C1489   1.540       .  S
C1483      C1488   1.548       .  S
C1483      C1490   1.534       .  S
C1485      C1488   1.366       .  D
C1485      C1585   1.492       .  S
C1486      C1489   1.390       .  D
C1486      C1573   1.509       .  S
C1487      C1490   1.375       .  D
C1487      C1597   1.480       .  S
C1488      C1552   1.476       .  S
C1489      C1540   1.501       .  S
C1490      C1561   1.505       .  S
O1491      C1507   1.269       .  A
C1492      O1508   1.272       .  A
C1492      O1505   1.275       .  A
C1492      C1537   1.475       .  S
O1493      C1506   1.273       .  A
O1493     Cd1500   2.059       .  S
O1494      C1512   1.275       .  A
O1495      C1509   1.271       .  A
O1496      C1507   1.273       .  A
O1496     Cd1499   2.056       .  S
Zn1497     O1502   1.938       .  S
O1498      C1509   1.276       .  A
O1501      C1511   1.274       .  A
Cd1503     O1505   2.067       .  S
O1504      C1511   1.277       .  A
C1506      O1510   1.273       .  A
C1506      C1612   1.464       .  S
C1507      C1549   1.484       .  S
C1509      C1564   1.478       .  S
C1511      C1621   1.476       .  S
C1512      O1513   1.276       .  A
C1512      C1633   1.481       .  S
O1514      C1530   1.274       .  A
C1515      O1531   1.272       .  A
C1515      O1528   1.273       .  A
C1515      C1588   1.481       .  S
O1516      C1529   1.280       .  A
O1516     Cd1523   2.103       .  S
O1517      C1535   1.272       .  A
O1517     Cd1526   2.052       .  S
O1518      C1532   1.274       .  A
O1519      C1530   1.274       .  A
O1519     Cd1522   2.076       .  S
Zn1520     O1533   2.009       .  S
Zn1520     O1525   1.934       .  S
O1521      C1532   1.271       .  A
Cd1522     O1524   2.062       .  S
Cd1523     O1525   2.006       .  S
O1524      C1534   1.274       .  A
Cd1526     O1528   2.058       .  S
O1527      C1534   1.277       .  A
C1529      O1533   1.273       .  A
C1529      C1648   1.482       .  S
C1530      C1576   1.477       .  S
C1532      C1600   1.484       .  S
C1534      C1672   1.471       .  S
C1535      O1536   1.278       .  A
C1535      C1657   1.478       .  S
C1537      C1538   1.397       .  A
C1537      C1542   1.412       .  A
C1538      C1539   1.399       .  A
C1538      H1547   1.083       .  S
C1539      C1540   1.420       .  A
C1539      S1543   1.802       .  S
C1540      C1541   1.408       .  A
C1541      C1542   1.400       .  A
C1541      H1548   1.084       .  S
C1542      S1544   1.802       .  S
S1543      H1546   1.407       .  S
S1544      H1545   1.407       .  S
C1549      C1550   1.408       .  A
C1549      C1554   1.418       .  A
C1550      C1551   1.397       .  A
C1550      H1559   1.083       .  S
C1551      C1552   1.412       .  A
C1551      S1555   1.808       .  S
C1552      C1553   1.395       .  A
C1553      C1554   1.390       .  A
C1553      H1560   1.081       .  S
C1554      S1556   1.802   1_565  S
S1555      H1558   1.398       .  S
C1561      C1562   1.406       .  A
C1561      C1566   1.417       .  A
C1562      C1563   1.399       .  A
C1562      H1571   1.079       .  S
C1563      C1564   1.412       .  A
C1563      S1567   1.803       .  S
C1564      C1565   1.399       .  A
C1565      C1566   1.402       .  A
C1565      H1572   1.083       .  S
C1566      S1568   1.795       .  S
S1567      H1570   1.407       .  S
S1568      H1569   1.406       .  S
C1573      C1574   1.413       .  A
C1573      C1578   1.419       .  A
C1574      C1575   1.402       .  A
C1574      H1583   1.082       .  S
C1575      C1576   1.410       .  A
C1575      S1579   1.802       .  S
C1576      C1577   1.397       .  A
C1577      C1578   1.398       .  A
C1577      H1584   1.083       .  S
C1578      S1580   1.797       .  S
S1579      H1582   1.407       .  S
S1580      H1581   1.406       .  S
C1585      C1586   1.403       .  A
C1585      C1590   1.410       .  A
C1586      C1587   1.400       .  A
C1586      H1595   1.078       .  S
C1587      C1588   1.413       .  A
C1587      S1591   1.810   1_565  S
C1588      C1589   1.405       .  A
C1589      C1590   1.402       .  A
C1589      H1596   1.083       .  S
C1590      S1592   1.802       .  S
S1591      H1594   1.407       .  S
S1592      H1593   1.406       .  S
C1597      C1598   1.396       .  A
C1597      C1602   1.411       .  A
C1598      C1599   1.392       .  A
C1598      H1607   1.081       .  S
C1599      C1600   1.418       .  A
C1599      S1603   1.804       .  S
C1600      C1601   1.408       .  A
C1601      C1602   1.400       .  A
C1601      H1608   1.083       .  S
C1602      S1604   1.803       .  S
S1603      H1606   1.408       .  S
S1604      H1605   1.400       .  S
C1609      C1610   1.399       .  A
C1609      C1614   1.420       .  A
C1610      C1611   1.394       .  A
C1610      H1619   1.079       .  S
C1611      C1612   1.407       .  A
C1611      S1615   1.805       .  S
C1612      C1613   1.399       .  A
C1613      C1614   1.398       .  A
C1613      H1620   1.084       .  S
C1614      S1616   1.806       .  S
S1615      H1618   1.406       .  S
S1616      H1617   1.395       .  S
C1621      C1622   1.399       .  A
C1621      C1626   1.411       .  A
C1622      C1623   1.395       .  A
C1622      H1631   1.085       .  S
C1623      C1624   1.421       .  A
C1623      S1627   1.800       .  S
C1624      C1625   1.410       .  A
C1625      C1626   1.402       .  A
C1625      H1632   1.082       .  S
C1626      S1628   1.803       .  S
S1627      H1630   1.392       .  S
S1628      H1629   1.406       .  S
C1633      C1634   1.396       .  A
C1633      C1638   1.407       .  A
C1634      C1635   1.404       .  A
C1634      H1643   1.083       .  S
C1635      C1636   1.432       .  A
C1635      S1639   1.801       .  S
C1636      C1637   1.413       .  A
C1637      C1638   1.400       .  A
C1637      H1644   1.073       .  S
C1638      S1640   1.804       .  S
S1639      H1642   1.406       .  S
S1640      H1641   1.407       .  S
C1645      C1646   1.404       .  A
C1645      C1650   1.418       .  A
C1646      C1647   1.403       .  A
C1646      H1655   1.084       .  S
C1647      C1648   1.415       .  A
C1648      C1649   1.402       .  A
C1649      C1650   1.402       .  A
C1649      H1656   1.084       .  S
C1650      S1652   1.803       .  S
S1651      H1654   1.407       .  S
S1652      H1653   1.399       .  S
C1657      C1658   1.401       .  A
C1657      C1662   1.412       .  A
C1658      C1659   1.405       .  A
C1658      H1667   1.083       .  S
C1659      C1660   1.420       .  A
C1659      S1663   1.806       .  S
C1660      C1661   1.404       .  A
C1661      C1662   1.397       .  A
C1661      H1668   1.078       .  S
C1662      S1664   1.805       .  S
S1663      H1666   1.406   1_655  S
S1664      H1665   1.407       .  S
C1669      C1670   1.404       .  A
C1669      C1674   1.418       .  A
C1670      C1671   1.401       .  A
C1670      H1679   1.081       .  S
C1671      C1672   1.411       .  A
C1672      C1673   1.399       .  A
C1673      C1674   1.399       .  A
C1673      H1680   1.084       .  S
C1674      S1676   1.805       .  S
S1675      H1678   1.406       .  S
S1676      H1677   1.402       .  S
