geometry optimzed in LAMMPS
_audit_creation_date              2020-11-30 
_audit_creation_method            'lammps2cif' 
_symmetry_space_group_name_H-M    'P1' 
_symmetry_Int_Tables_number       1 
_symmetry_cell_setting            triclinic 
loop_ 
_symmetry_equiv_pos_as_xyz 
  x,y,z 
_cell_length_a                    45.30023011 
_cell_length_b                    45.44471312433991 
_cell_length_c                    33.09571150629185 
_cell_angle_alpha                 90.081120712488 
_cell_angle_beta                  89.91562565885273 
_cell_angle_gamma                 122.00080819175179 
loop_ 
_atom_site_label 
_atom_site_type_symbol 
_atom_site_fract_x 
_atom_site_fract_y 
_atom_site_fract_z 
_atom_site_charge 
C1          C  0.33693103  0.16832295  0.71031675     0.46300
H2          H  0.33867294  0.16864360  0.67685936    -0.02700
C3          C  0.33232877  0.16637724  0.78881246     0.46300
H4          H  0.33038863  0.16503489  0.82227262    -0.02700
C5          C  0.35545138  0.20447623  0.73018971    -0.16400
C6          C  0.29934607  0.14993138  0.72571662    -0.16200
C7          C  0.35257572  0.14928100  0.73058156    -0.16600
C8          C  0.35344231  0.20346816  0.77187243    -0.16500
C9          C  0.29697108  0.14935792  0.76718412    -0.16100
C10         C  0.34969177  0.14784954  0.77188222    -0.16400
C11         C  0.16076687  0.34256663  0.28991194     0.46300
H12         H  0.16073357  0.34337704  0.32343922    -0.02700
C13         C  0.16146856  0.34129862  0.21117007     0.46300
H14         H  0.16201457  0.34124536  0.17761964    -0.02700
C15         C  0.19701388  0.35630938  0.27206759    -0.16400
C16         C  0.13866550  0.30578752  0.27214115    -0.16200
C17         C  0.14743724  0.36388910  0.26978220    -0.16600
C18         C  0.19752570  0.35605418  0.23058550    -0.16500
C19         C  0.13825804  0.30511197  0.23036770    -0.16100
C20         C  0.14780139  0.36320263  0.22844694    -0.16400
O21         O  0.49199943  0.43928262  0.94900046    -0.77700
C22         C  0.07761886  0.04721295  0.93466022     0.83400
O23         O  0.02756271  0.48616805  0.08419216    -0.78800
O24         O  0.03648987  0.08770088  0.02741221    -0.80300
O25         O  0.43732652  0.00792778  0.94805253    -0.80100
O26         O  0.44166836  0.43651779  0.94425793    -0.78700
Zn27       Zn  0.02335469  0.48281344  0.98137992     1.55700
O28         O  0.48720011  0.05915679  0.94472865    -0.80100
Cd29       Cd  0.44968611  0.47711635  0.98047288     1.59700
Cd30       Cd  0.49774975  0.00454033  0.06122304     1.59600
O31         O  0.41507237  0.45573432  0.02778842    -0.80100
O32         O  0.49852770  0.00422957  0.00060343    -1.90600
Cd33       Cd  0.02147803  0.05287461  0.97980172     1.59900
O34         O  0.44731104  0.47329494  0.08345345    -0.80000
O35         O  0.06504350  0.06537251  0.94536549    -0.78700
C36         C  0.04362920  0.47366561  0.06662747     0.83800
C37         C  0.46088527  0.42466320  0.93583809     0.83500
O38         O  0.06367385  0.01571241  0.94570949    -0.77600
C39         C  0.45493462  0.03939441  0.93635969     0.84300
O40         O  0.04322977  0.47068470  0.02830923    -0.77700
C41         C  0.41770267  0.45606918  0.06608938     0.84400
C42         C  0.03299421  0.08437811  0.06571562     0.84800
O43         O  0.01838124  0.05468207  0.08265170    -0.80200
O44         O  0.00822804  0.06983415  0.44562082    -0.77700
C45         C  0.41677958  0.46307159  0.43611764     0.83400
O46         O  0.47560757  0.03036907  0.58143787    -0.78800
O47         O  0.45368063  0.42107750  0.52884311    -0.80300
O48         O  0.05046005  0.49346220  0.43904154    -0.80100
O49         O  0.05758391  0.07062833  0.44353051    -0.78700
Zn50       Zn  0.47482605  0.02738475  0.47833581     1.55700
O51         O  0.99988414  0.44315775  0.44493347    -0.80100
Cd52       Cd  0.04532471  0.02689691  0.47631541     1.59700
Cd53       Cd  0.49896479  0.00487655  0.55903944     1.59600
O54         O  0.08133295  0.04161440  0.52223021    -0.80100
O55         O  0.49722023  0.00395989  0.49863140    -1.90600
Cd56       Cd  0.47056616  0.45468958  0.48100467     1.59900
O57         O  0.05010190  0.02877945  0.57867152    -0.80000
O58         O  0.42752846  0.44398828  0.44881372    -0.78700
C59         C  0.45981075  0.04298899  0.56351106     0.83800
C60         C  0.03984197  0.08394758  0.43435101     0.83500
O61         O  0.43297666  0.49548177  0.44367657    -0.77600
C62         C  0.03060631  0.46130176  0.43089408     0.84300
O63         O  0.45787277  0.04281147  0.52511486    -0.77700
C64         C  0.07925192  0.04101365  0.56068020     0.84400
C65         C  0.45634154  0.42495434  0.56699651     0.84800
O66         O  0.47241206  0.45502982  0.58306488    -0.80200
C67         C  0.12275150  0.23883006  0.14999591    -0.01200
C68         C  0.08881322  0.21115033  0.15890705     0.07400
C69         C  0.07009551  0.21489600  0.19009885    -0.07200
C70         C  0.08496229  0.24559551  0.21280855     0.04800
C71         C  0.11974488  0.27283439  0.20521995    -0.14400
C72         C  0.13768065  0.26928761  0.17285425    -0.07700
C73         C  0.07252628  0.17826079  0.13567563     0.05800
C74         C  0.06974015  0.14895301  0.15350749    -0.08800
C75         C  0.05663968  0.11799768  0.13167899     0.00800
C76         C  0.04611644  0.11611038  0.09093571     0.00600
C77         C  0.04841567  0.14551929  0.07354975    -0.12400
C78         C  0.06119636  0.17626662  0.09560738     0.01100
C79         C  0.05563230  0.08920685  0.15154521     0.40400
C80         C  0.06208942  0.20537924  0.07678593     0.37000
C81         C  0.14299445  0.23629278  0.11798598     0.36800
C82         C  0.06311915  0.24933764  0.24149660     0.37500
N83         N  0.05480960  0.06615768  0.16755912    -0.43300
N84         N  0.06271049  0.22872725  0.06189724    -0.43700
N85         N  0.04531741  0.25228523  0.26408063    -0.41100
N86         N  0.15923254  0.23431076  0.09231536    -0.42500
H87         H  0.16370302  0.29022720  0.16544042     0.13600
H88         H  0.04357319  0.19398578  0.19620219     0.10100
H89         H  0.07852066  0.15053103  0.18436817     0.11200
H90         H  0.03994908  0.14446474  0.04265943     0.17000
C91         C  0.26671656  0.35658862  0.16591182    -0.01200
C92         C  0.29224696  0.39232552  0.16362094     0.07400
C93         C  0.28595115  0.41619044  0.18241755    -0.07200
C94         C  0.25495597  0.40494845  0.20353244     0.04800
C95         C  0.22971255  0.36921851  0.20634191    -0.14400
C96         C  0.23578576  0.34543674  0.18708318    -0.07700
C97         C  0.32475657  0.40568152  0.13985339     0.05800
C98         C  0.32229224  0.39942077  0.09819948    -0.08800
C99         C  0.35206768  0.41402057  0.07387867     0.00800
C100        C  0.38543222  0.43662913  0.09108922     0.00600
C101        C  0.38778339  0.44151206  0.13328677    -0.12400
C102        C  0.35791379  0.42599910  0.15762985     0.01100
C103        C  0.34715153  0.40470776  0.03158990     0.40400
C104        C  0.36191009  0.43055228  0.20087771     0.37000
C105        C  0.27203403  0.33084821  0.14775289     0.36800
C106        C  0.24919196  0.43064871  0.22071165     0.37500
N107        N  0.34305945  0.39694231  0.99779915    -0.43300
N108        N  0.36510341  0.43381812  0.23557189    -0.43700
N109        N  0.24492465  0.45171722  0.23381045    -0.41100
N110        N  0.27617317  0.31014620  0.13315292    -0.42500
H111        H  0.21696772  0.31792405  0.18993917     0.13600
H112        H  0.30510612  0.44376059  0.17995340     0.10100
H113        H  0.29683065  0.38337512  0.08448352     0.11200
H114        H  0.41297863  0.45781979  0.14744014     0.17000
C115        C  0.13822786  0.43550575  0.18735322    -0.01200
C116        C  0.10957638  0.41736075  0.16123337     0.07400
C117        C  0.09436387  0.38163930  0.15575783    -0.07200
C118        C  0.10687810  0.36359972  0.17641917     0.04800
C119        C  0.13540213  0.38153380  0.20299700    -0.14400
C120        C  0.15104501  0.41756839  0.20776843    -0.07700
C121        C  0.09488052  0.43485373  0.13889362     0.05800
C122        C  0.10599836  0.44572945  0.09923912    -0.08800
C123        C  0.09046357  0.45933957  0.07550868     0.00800
C124        C  0.06276705  0.46180843  0.09143209     0.00600
C125        C  0.05261189  0.45195590  0.13186181    -0.12400
C126        C  0.06839311  0.43851981  0.15554922     0.01100
C127        C  0.10406899  0.47109726  0.03530038     0.40400
C128        C  0.05657390  0.42792902  0.19655766     0.37000
C129        C  0.15452772  0.47233519  0.19387170     0.36800
C130        C  0.08872844  0.32659827  0.17074991     0.37500
N131        N  0.11509034  0.48058745  0.00313990    -0.43300
N132        N  0.04722628  0.41946984  0.22945166    -0.43700
N133        N  0.07317826  0.29700324  0.16500618    -0.41100
N134        N  0.16752325  0.50185712  0.19911200    -0.42500
H135        H  0.17307341  0.43164598  0.22787992     0.13600
H136        H  0.07222974  0.36772159  0.13563683     0.10100
H137        H  0.12664395  0.44314829  0.08664503     0.11200
H138        H  0.03167019  0.45387427  0.14475063     0.17000
C139        C  0.12121587  0.21888291  0.30841839    -0.01200
C140        C  0.09983328  0.21230303  0.34251636     0.07400
C141        C  0.09296087  0.23765660  0.35491897    -0.07200
C142        C  0.10551002  0.26836283  0.33292622     0.04800
C143        C  0.12590667  0.27440122  0.29796783    -0.14400
C144        C  0.13453657  0.24994891  0.28710832    -0.07700
C145        C  0.08423198  0.17917508  0.36550299     0.05800
C146        C  0.10603400  0.16891621  0.38159150    -0.08800
C147        C  0.09241193  0.13780299  0.40307253     0.00800
C148        C  0.05603735  0.11662905  0.41019858     0.00600
C149        C  0.03433069  0.12717013  0.39404504    -0.12400
C150        C  0.04797183  0.15776995  0.37157560     0.01100
C151        C  0.11669479  0.12866130  0.41713958     0.40400
C152        C  0.02406788  0.16605343  0.35399037     0.37000
C153        C  0.12880697  0.19368487  0.29362453     0.36800
C154        C  0.09570457  0.29225107  0.34628921     0.37500
N155        N  0.13628537  0.12136107  0.42798179    -0.43300
N156        N  0.00497543  0.17273418  0.33984130    -0.43700
N157        N  0.08749988  0.31090053  0.35797079    -0.41100
N158        N  0.13495694  0.17355044  0.28171274    -0.42500
H159        H  0.15124706  0.25479609  0.26126131     0.13600
H160        H  0.07717600  0.23313773  0.38160865     0.10100
H161        H  0.13395727  0.18534204  0.37725519     0.11200
H162        H  0.00639196  0.11122695  0.39844277     0.17000
C163        C  0.26762082  0.41136334  0.34724999    -0.01200
C164        C  0.29066182  0.39976824  0.34222011     0.07400
C165        C  0.28097171  0.37086321  0.31766301    -0.07200
C166        C  0.24956912  0.35488733  0.29617368     0.04800
C167        C  0.22820735  0.36884718  0.29802648    -0.14400
C168        C  0.23649740  0.39547548  0.32558708    -0.07700
C169        C  0.32367771  0.41592720  0.36488956     0.05800
C170        C  0.32544602  0.39876628  0.39897820    -0.08800
C171        C  0.35539956  0.41394599  0.42283620     0.00800
C172        C  0.38441060  0.44680247  0.41227603     0.00600
C173        C  0.38252678  0.46404410  0.37815274    -0.12400
C174        C  0.35241782  0.44881350  0.35437672     0.01100
C175        C  0.35497344  0.39608887  0.45913384     0.40400
C176        C  0.35153345  0.46723589  0.31934407     0.37000
C177        C  0.27505525  0.43894967  0.37512732     0.36800
C178        C  0.23826170  0.32240872  0.27608996     0.37500
N179        N  0.35461330  0.38192830  0.48834401    -0.43300
N180        N  0.35080414  0.48201131  0.29128960    -0.43700
N181        N  0.22916755  0.29599182  0.26087280    -0.41100
N182        N  0.28104770  0.46099592  0.39756539    -0.42500
H183        H  0.21848016  0.40365465  0.33040370     0.13600
H184        H  0.29767603  0.36048953  0.31586289     0.10100
H185        H  0.30301717  0.37378870  0.40745127     0.11200
H186        H  0.40471765  0.48921773  0.36981899     0.17000
C187        C  0.07401914  0.37195783  0.30965838    -0.01200
C188        C  0.09186899  0.40255008  0.33287583     0.07400
C189        C  0.12823350  0.42073299  0.33506520    -0.07200
C190        C  0.14706819  0.40937721  0.31402994     0.04800
C191        C  0.12924523  0.37779951  0.29250434    -0.14400
C192        C  0.09277313  0.35964401  0.29005842    -0.07700
C193        C  0.07353017  0.41651308  0.35507354     0.05800
C194        C  0.04998369  0.39642860  0.38568677    -0.08800
C195        C  0.03486752  0.41006768  0.41014328     0.00800
C196        C  0.04382655  0.44470210  0.40435943     0.00600
C197        C  0.06677420  0.46442895  0.37307583    -0.12400
C198        C  0.08136035  0.45055812  0.34825493     0.01100
C199        C  0.01174256  0.38851588  0.44211055     0.40400
C200        C  0.10419079  0.47169505  0.31588103     0.37000
C201        C  0.03678488  0.35367001  0.30423345     0.36800
C202        C  0.18420641  0.43286344  0.31198719     0.37500
N203        N  0.49315736  0.37118494  0.46763838    -0.43300
N204        N  0.12252715  0.48858595  0.28996103    -0.43700
N205        N  0.21369007  0.45356299  0.31076391    -0.41100
N206        N  0.00695633  0.33921376  0.29974088    -0.42500
H207        H  0.07900290  0.33599551  0.27232052     0.13600
H208        H  0.14205895  0.44463878  0.35235087     0.10100
H209        H  0.04421713  0.37037065  0.39124845     0.11200
H210        H  0.07331754  0.49080154  0.36794927     0.17000
C211        C  0.44216965  0.09457043  0.86137941    -0.01200
C212        C  0.40708079  0.08385622  0.86781999     0.07400
C213        C  0.38717717  0.05735998  0.89568799    -0.07200
C214        C  0.40195110  0.04212141  0.91793690     0.04800
C215        C  0.43752488  0.05361895  0.91251667    -0.14400
C216        C  0.45717198  0.07979642  0.88400587    -0.07700
C217        C  0.39068888  0.09990477  0.84557194     0.05800
C218        C  0.36362545  0.07959265  0.81836947    -0.08800
C219        C  0.34883359  0.09431000  0.79523285     0.00800
C220        C  0.36182109  0.13013085  0.79851992     0.00600
C221        C  0.38728868  0.14990250  0.82754862    -0.12400
C222        C  0.40171796  0.13508860  0.85111093     0.01100
C223        C  0.31951707  0.07191768  0.76967316     0.40400
C224        C  0.42749930  0.15632498  0.88106606     0.37000
C225        C  0.46294666  0.11999360  0.83089628     0.36800
C226        C  0.38023154  0.01571815  0.94707822     0.37500
N227        N  0.29583184  0.05380249  0.74949374    -0.43300
N228        N  0.44809955  0.17329926  0.90515745    -0.43700
N229        N  0.36275890  0.99452970  0.97035787    -0.41100
N230        N  0.47942978  0.14028056  0.80633026    -0.42500
H231        H  0.48425557  0.08844258  0.87894748     0.13600
H232        H  0.36010698  0.04891819  0.90046605     0.10100
H233        H  0.35423929  0.05225342  0.81503270     0.11200
H234        H  0.39652503  0.17719891  0.83108079     0.17000
C235        C  0.42158072  0.29280505  0.81156280    -0.01200
C236        C  0.40378714  0.29743308  0.84341514     0.07400
C237        C  0.36989449  0.27067785  0.85295235    -0.07200
C238        C  0.35322229  0.23968162  0.83089174     0.04800
C239        C  0.37074115  0.23493949  0.79844785    -0.14400
C240        C  0.40532217  0.26150547  0.79001398    -0.07700
C241        C  0.41942304  0.33039496  0.86640793     0.05800
C242        C  0.40589783  0.35160440  0.86106865    -0.08800
C243        C  0.41922412  0.38260439  0.88274698     0.00800
C244        C  0.44659868  0.39275305  0.91080739     0.00600
C245        C  0.46025217  0.37145535  0.91573472    -0.12400
C246        C  0.44680395  0.34044394  0.89401614     0.01100
C247        C  0.40490807  0.40380617  0.87452038     0.40400
C248        C  0.46074242  0.31880660  0.90140853     0.37000
C249        C  0.45583534  0.32044164  0.79931111     0.36800
C250        C  0.31782574  0.21417716  0.84190133     0.37500
N251        N  0.39343005  0.42076627  0.86778523    -0.43300
N252        N  0.47185619  0.30141201  0.90732096    -0.43700
N253        N  0.28964959  0.19440014  0.85225118    -0.41100
N254        N  0.48318683  0.34279174  0.78945890    -0.42500
H255        H  0.41940841  0.25817070  0.76575048     0.13600
H256        H  0.35619173  0.27431641  0.87746408     0.10100
H257        H  0.38491615  0.34393083  0.83965252     0.11200
H258        H  0.48101187  0.37862471  0.93729123     0.17000
C259        C  0.22599891  0.09334521  0.84193935    -0.01200
C260        C  0.20203118  0.10383944  0.83598458     0.07400
C261        C  0.20953927  0.12967511  0.80741148    -0.07200
C262        C  0.24020447  0.14481331  0.78458811     0.04800
C263        C  0.26382476  0.13380515  0.79004200    -0.14400
C264        C  0.25655121  0.10831216  0.81894149    -0.07700
C265        C  0.16960826  0.08918409  0.86023501     0.05800
C266        C  0.16561273  0.11108228  0.88651206    -0.08800
C267        C  0.13577856  0.09826000  0.91059986     0.00800
C268        C  0.10918838  0.06268897  0.90868909     0.00600
C269        C  0.11313270  0.04097166  0.88181856    -0.12400
C270        C  0.14276381  0.05396836  0.85739741     0.01100
C271        C  0.13394910  0.12196113  0.93807015     0.40400
C272        C  0.14472275  0.03094433  0.82891924     0.37000
C273        C  0.22032785  0.06803171  0.87223183     0.36800
C274        C  0.24786359  0.17307948  0.75782311     0.37500
N275        N  0.13256318  0.14102467  0.96005333    -0.43300
N276        N  0.14642602  0.01262760  0.80602121    -0.43700
N277        N  0.25398806  0.19585541  0.73659115    -0.41100
N278        N  0.21581077  0.04768898  0.89643150    -0.42500
H279        H  0.27486854  0.10013936  0.82358066     0.13600
H280        H  0.19154217  0.13830922  0.80331303     0.10100
H281        H  0.18618180  0.13823494  0.88862873     0.11200
H282        H  0.09277908  0.01376609  0.87950083     0.17000
C283        C  0.42815732  0.06928913  0.65503320     0.02200
C284        C  0.41174504  0.08511337  0.63723554     0.07400
C285        C  0.41102957  0.08710951  0.59505677    -0.07200
C286        C  0.42616384  0.07358507  0.57039713     0.04800
C287        C  0.44308608  0.05788804  0.58805025    -0.14400
C288        C  0.44365458  0.05598285  0.63053247    -0.07700
C289        C  0.39600084  0.10070427  0.66187739     0.05800
C290        C  0.41727997  0.12802677  0.68837604    -0.08800
C291        C  0.40375973  0.14427293  0.71100894     0.00800
C292        C  0.36841737  0.13344407  0.70684182     0.00600
C293        C  0.34733120  0.10672776  0.67971762    -0.12400
C294        C  0.36060841  0.08987113  0.65786299     0.01100
C295        C  0.42703406  0.17307847  0.73668455     0.40400
C296        C  0.33715339  0.06075140  0.63266416     0.37000
C297        C  0.42873813  0.06572027  0.69834783     0.36800
C298        C  0.42366533  0.07646373  0.52723259     0.37500
N299        N  0.44577557  0.19623340  0.75713945    -0.43300
N300        N  0.31831123  0.03729633  0.61264116    -0.43700
N301        N  0.42146732  0.07877467  0.49268666    -0.41100
N302        N  0.42916728  0.06292837  0.73306262    -0.42500
H303        H  0.45606027  0.04384971  0.64488511     0.13600
H304        H  0.39868928  0.09956752  0.58128907     0.10100
H305        H  0.44466204  0.13699004  0.69093748     0.11200
H306        H  0.32012762  0.09834143  0.67655468     0.17000
C307        C  0.37226802  0.29109494  0.69376514    -0.01200
C308        C  0.39498638  0.29844409  0.66099818     0.07400
C309        C  0.40464911  0.27479078  0.65059164    -0.07200
C310        C  0.39233919  0.24416803  0.67262015     0.04800
C311        C  0.36984181  0.23684952  0.70587730    -0.14400
C312        C  0.35961595  0.26035054  0.71555131    -0.07700
C313        C  0.40933543  0.33084908  0.63736347     0.05800
C314        C  0.43390149  0.36243810  0.65543528    -0.08800
C315        C  0.44952467  0.39350450  0.63351318     0.00800
C316        C  0.44008393  0.39326218  0.59264606     0.00600
C317        C  0.41497205  0.36139429  0.57499012    -0.12400
C318        C  0.39984510  0.33040263  0.59680431     0.01100
C319        C  0.47624861  0.42466740  0.65334845     0.40400
C320        C  0.37465040  0.29844239  0.57693529     0.37000
C321        C  0.36100726  0.31434093  0.70498482     0.36800
C322        C  0.40375652  0.22127307  0.66046963     0.37500
N323        N  0.49779192  0.44953749  0.66930808    -0.43300
N324        N  0.35458191  0.27283937  0.56093173    -0.43700
N325        N  0.41303988  0.20324661  0.64971114    -0.41100
N326        N  0.35198466  0.33297421  0.71400793    -0.42500
H327        H  0.34134181  0.25448856  0.73999662     0.13600
H328        H  0.42215510  0.28049154  0.62530656     0.10100
H329        H  0.44151209  0.36263730  0.68655358     0.11200
H330        H  0.40717467  0.36050965  0.54382334     0.17000
C331        C  0.17304561  0.07209905  0.58636133    -0.01200
C332        C  0.17498888  0.08086103  0.62748112     0.07400
C333        C  0.14532956  0.07604192  0.64708781    -0.07200
C334        C  0.11387900  0.06295316  0.62635274     0.04800
C335        C  0.11177712  0.05459172  0.58472507    -0.14400
C336        C  0.14171265  0.05921452  0.56536789    -0.07700
C337        C  0.20806943  0.09683298  0.65033359     0.05800
C338        C  0.23461462  0.13078887  0.64080526    -0.08800
C339        C  0.26476401  0.14845155  0.66437689     0.00800
C340        C  0.26883546  0.13179023  0.69806449     0.00600
C341        C  0.24288551  0.09709344  0.70620876    -0.12400
C342        C  0.21241876  0.07980595  0.68316236     0.01100
C343        C  0.28961400  0.18423674  0.65447082     0.40400
C344        C  0.18576750  0.04478880  0.69400792     0.37000
C345        C  0.20266400  0.07543407  0.56539891     0.36800
C346        C  0.08471267  0.05929855  0.64868578     0.37500
N347        N  0.30868442  0.21287094  0.64542769    -0.43300
N348        N  0.16428764  0.01677640  0.70277231    -0.43700
N349        N  0.06140400  0.05634024  0.66677817    -0.41100
N350        N  0.22636174  0.07795520  0.54868831    -0.42500
H351        H  0.14068986  0.05251405  0.53372580     0.13600
H352        H  0.14696050  0.08306682  0.67872011     0.10100
H353        H  0.23109470  0.14401068  0.61574869     0.11200
H354        H  0.24612597  0.08362753  0.73117118     0.17000
C355        C  0.33693079  0.66832314  0.71031792     0.46300
H356        H  0.33867259  0.66864418  0.67686054    -0.02700
C357        C  0.33232880  0.66637660  0.78881372     0.46300
H358        H  0.33038872  0.66503387  0.82227387    -0.02700
C359        C  0.35545096  0.70447623  0.73019143    -0.16400
C360        C  0.29934585  0.64993109  0.72571803    -0.16200
C361        C  0.35257586  0.64928125  0.73058210    -0.16600
C362        C  0.35344197  0.70346770  0.77187414    -0.16500
C363        C  0.29697108  0.64935722  0.76718555    -0.16100
C364        C  0.34969203  0.64784935  0.77188276    -0.16400
C365        C  0.16076644  0.84256689  0.28991213     0.46300
H366        H  0.16073287  0.84337719  0.32343940    -0.02700
C367        C  0.16146847  0.84129893  0.21117023     0.46300
H368        H  0.16201459  0.84124566  0.17761985    -0.02700
C369        C  0.19701358  0.85630984  0.27206801    -0.16400
C370        C  0.13866525  0.80578780  0.27214128    -0.16200
C371        C  0.14743680  0.86388926  0.26978218    -0.16600
C372        C  0.19752556  0.85605463  0.23058592    -0.16500
C373        C  0.13825795  0.80511225  0.23036787    -0.16100
C374        C  0.14780114  0.86320286  0.22844697    -0.16400
O375        O  0.49199931  0.93928318  0.94900015    -0.77700
C376        C  0.07761893  0.54721222  0.93466105     0.83400
O377        O  0.02756240  0.98616820  0.08419182    -0.78800
O378        O  0.03648984  0.58770053  0.02741263    -0.80300
O379        O  0.43732685  0.50792713  0.94805248    -0.80100
O380        O  0.44166813  0.93651818  0.94425754    -0.78700
Zn381      Zn  0.02335484  0.98281415  0.98137959     1.55700
O382        O  0.48720035  0.55915617  0.94472834    -0.80100
Cd383      Cd  0.44968579  0.97711671  0.98047254     1.59700
Cd384      Cd  0.49774997  0.50454008  0.06122358     1.59600
O385        O  0.41507200  0.95573470  0.02778810    -0.80100
O386        O  0.49852793  0.50422925  0.00060389    -1.90600
Cd387      Cd  0.02147811  0.55287414  0.97980206     1.59900
O388        O  0.44731088  0.97329546  0.08345297    -0.80000
O389        O  0.06504379  0.56537196  0.94536637    -0.78700
C390        C  0.04362905  0.97366592  0.06662720     0.83800
C391        C  0.46088510  0.92466360  0.93583786     0.83500
O392        O  0.06367371  0.51571163  0.94571010    -0.77600
C393        C  0.45493489  0.53939361  0.93635922     0.84300
O394        O  0.04322991  0.97068525  0.02830895    -0.77700
C395        C  0.41770244  0.95606972  0.06608905     0.84400
C396        C  0.03299437  0.58437787  0.06571608     0.84800
O397        O  0.01838149  0.55468184  0.08265218    -0.80200
O398        O  0.00822821  0.56983421  0.44561987    -0.77700
C399        C  0.41677936  0.96307129  0.43611813     0.83400
O400        O  0.47560673  0.53036882  0.58143728    -0.78800
O401        O  0.45368003  0.92107722  0.52884447    -0.80300
O402        O  0.05045898  0.99346153  0.43904079    -0.80100
O403        O  0.05758432  0.57062877  0.44353082    -0.78700
Zn404      Zn  0.47482621  0.52738523  0.47833527     1.55700
O405        O  0.99988353  0.94315681  0.44493457    -0.80100
Cd406      Cd  0.04532515  0.52689745  0.47631598     1.59700
Cd407      Cd  0.49896424  0.50487651  0.55903916     1.59600
O408        O  0.08133280  0.54161508  0.52223161    -0.80100
O409        O  0.49722037  0.50396034  0.49863109    -1.90600
Cd410      Cd  0.47056570  0.95468897  0.48100553     1.59900
O411        O  0.05010100  0.52877934  0.57867242    -0.80000
O412        O  0.42752800  0.94398782  0.44881443    -0.78700
C413        C  0.45981054  0.54298939  0.56351044     0.83800
C414        C  0.03984223  0.58394772  0.43435050     0.83500
O415        O  0.43297666  0.99548149  0.44367696    -0.77600
C416        C  0.03060538  0.96130092  0.43089420     0.84300
O417        O  0.45787310  0.54281242  0.52511418    -0.77700
C418        C  0.07925128  0.54101392  0.56068158     0.84400
C419        C  0.45634161  0.92495443  0.56699781     0.84800
O420        O  0.47241280  0.95503007  0.58306574    -0.80200
C421        C  0.12275202  0.73883004  0.14999680    -0.01200
C422        C  0.08881363  0.71115033  0.15890760     0.07400
C423        C  0.07009573  0.71489610  0.19009904    -0.07200
C424        C  0.08496235  0.74559563  0.21280868     0.04800
C425        C  0.11974496  0.77283459  0.20522020    -0.14400
C426        C  0.13768099  0.76928771  0.17285490    -0.07700
C427        C  0.07252675  0.67826079  0.13567608     0.05800
C428        C  0.06973991  0.64895275  0.15350821    -0.08800
C429        C  0.05663944  0.61799739  0.13167968     0.00800
C430        C  0.04611674  0.61611025  0.09093618     0.00600
C431        C  0.04841677  0.64551946  0.07354992    -0.12400
C432        C  0.06119760  0.67626688  0.09560750     0.01100
C433        C  0.05563165  0.58920642  0.15154617     0.40400
C434        C  0.06209159  0.70537984  0.07678565     0.37000
C435        C  0.14299523  0.73629265  0.11798736     0.36800
C436        C  0.06311907  0.74933767  0.24149652     0.37500
N437        N  0.05480875  0.56615724  0.16756025    -0.43300
N438        N  0.06271354  0.72872823  0.06189665    -0.43700
N439        N  0.04531712  0.75228517  0.26408032    -0.41100
N440        N  0.15923348  0.73431048  0.09231709    -0.42500
H441        H  0.16370341  0.79022727  0.16544130     0.13600
H442        H  0.04357331  0.69398586  0.19620219     0.10100
H443        H  0.07851994  0.65053061  0.18436906     0.11200
H444        H  0.03995072  0.64446511  0.04265942     0.17000
C445        C  0.26671691  0.85658980  0.16591238    -0.01200
C446        C  0.29224698  0.89232679  0.16362119     0.07400
C447        C  0.28595084  0.91619151  0.18241773    -0.07200
C448        C  0.25495564  0.90494925  0.20353273     0.04800
C449        C  0.22971256  0.86921923  0.20634248    -0.14400
C450        C  0.23578608  0.84543763  0.18708387    -0.07700
C451        C  0.32475660  0.90568301  0.13985351     0.05800
C452        C  0.32229218  0.89942147  0.09819974    -0.08800
C453        C  0.35206758  0.91402096  0.07387885     0.00800
C454        C  0.38543211  0.93662997  0.09108910     0.00600
C455        C  0.38778338  0.94151383  0.13328650    -0.12400
C456        C  0.35791386  0.92600126  0.15762970     0.01100
C457        C  0.34715138  0.90470718  0.03159041     0.40400
C458        C  0.36191032  0.93055551  0.20087743     0.37000
C459        C  0.27203463  0.83084956  0.14775344     0.36800
C460        C  0.24919134  0.93064933  0.22071182     0.37500
N461        N  0.34305919  0.89694075  0.99779993    -0.43300
N462        N  0.36510378  0.93382225  0.23557151    -0.43700
N463        N  0.24492393  0.95171776  0.23381070    -0.41100
N464        N  0.27617391  0.81014770  0.13315327    -0.42500
H465        H  0.21696827  0.81792495  0.18993989     0.13600
H466        H  0.30510554  0.94376173  0.17995341     0.10100
H467        H  0.29683063  0.88337536  0.08448396     0.11200
H468        H  0.41297864  0.95782206  0.14743965     0.17000
C469        C  0.13822769  0.93550597  0.18735286    -0.01200
C470        C  0.10957561  0.91736075  0.16123385     0.07400
C471        C  0.09436278  0.88163920  0.15575884    -0.07200
C472        C  0.10687719  0.86359968  0.17641999     0.04800
C473        C  0.13540179  0.88153395  0.20299701    -0.14400
C474        C  0.15104501  0.91756865  0.20776789    -0.07700
C475        C  0.09487977  0.93485368  0.13889395     0.05800
C476        C  0.10599797  0.94572960  0.09923958    -0.08800
C477        C  0.09046330  0.95933970  0.07550886     0.00800
C478        C  0.06276668  0.96180855  0.09143198     0.00600
C479        C  0.05261104  0.95195566  0.13186152    -0.12400
C480        C  0.06839196  0.93851935  0.15554911     0.01100
C481        C  0.10406876  0.97109711  0.03530052     0.40400
C482        C  0.05657199  0.92792788  0.19655720     0.37000
C483        C  0.15452808  0.97233558  0.19387054     0.36800
C484        C  0.08872736  0.82659819  0.17075114     0.37500
N485        N  0.11509002  0.98058695  0.00313990    -0.43300
N486        N  0.04722365  0.91946801  0.22945089    -0.43700
N487        N  0.07317701  0.79700309  0.16500768    -0.41100
N488        N  0.16752406  0.00185766  0.19911017    -0.42500
H489        H  0.17307380  0.93164637  0.22787880     0.13600
H490        H  0.07222837  0.86772138  0.13563829     0.10100
H491        H  0.12664368  0.94314853  0.08664580     0.11200
H492        H  0.03166911  0.95387383  0.14475007     0.17000
C493        C  0.12121705  0.71888383  0.30841877    -0.01200
C494        C  0.09983356  0.71230322  0.34251605     0.07400
C495        C  0.09296018  0.73765619  0.35491829    -0.07200
C496        C  0.10550922  0.76836250  0.33292576     0.04800
C497        C  0.12590662  0.77440152  0.29796791    -0.14400
C498        C  0.13453751  0.74994986  0.28710883    -0.07700
C499        C  0.08423227  0.67917510  0.36550230     0.05800
C500        C  0.10603440  0.66891672  0.38159169    -0.08800
C501        C  0.09241230  0.63780338  0.40307248     0.00800
C502        C  0.05603766  0.61662903  0.41019776     0.00600
C503        C  0.03433088  0.62716955  0.39404317    -0.12400
C504        C  0.04797204  0.65776933  0.37157365     0.01100
C505        C  0.11669520  0.62866179  0.41713966     0.40400
C506        C  0.02406802  0.66605196  0.35398675     0.37000
C507        C  0.12880931  0.69368650  0.29362539     0.36800
C508        C  0.09570289  0.79225017  0.34628833     0.37500
N509        N  0.13628579  0.62136155  0.42798181    -0.43300
N510        N  0.00497557  0.67273203  0.33983621    -0.43700
N511        N  0.08749752  0.81089916  0.35796958    -0.41100
N512        N  0.13496026  0.67355268  0.28171395    -0.42500
H513        H  0.15124849  0.75479751  0.26126222     0.13600
H514        H  0.07717462  0.73313677  0.38160750     0.10100
H515        H  0.13395770  0.68534296  0.37725611     0.11200
H516        H  0.00639212  0.61122593  0.39844002     0.17000
C517        C  0.26762022  0.91136380  0.34725086    -0.01200
C518        C  0.29066135  0.89976888  0.34222098     0.07400
C519        C  0.28097138  0.87086390  0.31766380    -0.07200
C520        C  0.24956881  0.85488802  0.29617440     0.04800
C521        C  0.22820699  0.86884777  0.29802706    -0.14400
C522        C  0.23649690  0.89547602  0.32558772    -0.07700
C523        C  0.32367722  0.91592783  0.36489050     0.05800
C524        C  0.32544568  0.89876650  0.39897860    -0.08800
C525        C  0.35539931  0.91394585  0.42283637     0.00800
C526        C  0.38441038  0.94680241  0.41227649     0.00600
C527        C  0.38252641  0.96404449  0.37815374    -0.12400
C528        C  0.35241729  0.94881431  0.35437801     0.01100
C529        C  0.35497318  0.89608834  0.45913359     0.40400
C530        C  0.35153281  0.96723716  0.31934591     0.37000
C531        C  0.27505428  0.93894975  0.37512865     0.36800
C532        C  0.23826141  0.82240931  0.27609085     0.37500
N533        N  0.35461298  0.88192744  0.48834349    -0.43300
N534        N  0.35080362  0.98201303  0.29129182    -0.43700
N535        N  0.22916728  0.79599235  0.26087398    -0.41100
N536        N  0.28104636  0.96099559  0.39756714    -0.42500
H537        H  0.21847961  0.90365513  0.33040426     0.13600
H538        H  0.29767569  0.86049030  0.31586373     0.10100
H539        H  0.30301684  0.87378883  0.40745150     0.11200
H540        H  0.40471731  0.98921822  0.36982021     0.17000
C541        C  0.07401827  0.87195727  0.30965800    -0.01200
C542        C  0.09186790  0.90254974  0.33287503     0.07400
C543        C  0.12823246  0.92073313  0.33506419    -0.07200
C544        C  0.14706735  0.90937741  0.31402927     0.04800
C545        C  0.12924460  0.87779953  0.29250408    -0.14400
C546        C  0.09277249  0.85964368  0.29005814    -0.07700
C547        C  0.07352883  0.91651237  0.35507282     0.05800
C548        C  0.04998356  0.89642825  0.38568715    -0.08800
C549        C  0.03486764  0.91006730  0.41014414     0.00800
C550        C  0.04382545  0.94470124  0.40435933     0.00600
C551        C  0.06677192  0.96442769  0.37307465    -0.12400
C552        C  0.08135800  0.95055696  0.34825352     0.01100
C553        C  0.01174438  0.88851615  0.44211292     0.40400
C554        C  0.10418757  0.97169360  0.31587884     0.37000
C555        C  0.03678392  0.85366890  0.30423346     0.36800
C556        C  0.18420557  0.93286370  0.31198675     0.37500
N557        N  0.49316054  0.87118572  0.46764190    -0.43300
N558        N  0.12252328  0.98858429  0.28995834    -0.43700
N559        N  0.21368925  0.95356324  0.31076385    -0.41100
N560        N  0.00695533  0.83921225  0.29974120    -0.42500
H561        H  0.07900250  0.83599511  0.27232043     0.13600
H562        H  0.14205774  0.94463909  0.35234953     0.10100
H563        H  0.04421794  0.87037067  0.39124940     0.11200
H564        H  0.07331447  0.99079999  0.36794751     0.17000
C565        C  0.44216965  0.59456859  0.86137745    -0.01200
C566        C  0.40708074  0.58385432  0.86781797     0.07400
C567        C  0.38717719  0.55735821  0.89568613    -0.07200
C568        C  0.40195124  0.54211997  0.91793543     0.04800
C569        C  0.43752512  0.55361774  0.91251548    -0.14400
C570        C  0.45717207  0.57979487  0.88400430    -0.07700
C571        C  0.39068901  0.59990323  0.84557030     0.05800
C572        C  0.36362539  0.57959153  0.81836782    -0.08800
C573        C  0.34883355  0.59430933  0.79523196     0.00800
C574        C  0.36182130  0.63013020  0.79851972     0.00600
C575        C  0.38728904  0.64990137  0.82754845    -0.12400
C576        C  0.40171826  0.63508703  0.85111004     0.01100
C577        C  0.31951664  0.57191740  0.76967254     0.40400
C578        C  0.42749955  0.65632285  0.88106549     0.37000
C579        C  0.46294659  0.61999163  0.83089415     0.36800
C580        C  0.38023182  0.51571691  0.94707693     0.37500
N581        N  0.29583107  0.55380246  0.74949341    -0.43300
N582        N  0.44809978  0.67329662  0.90515712    -0.43700
N583        N  0.36275925  0.49452858  0.97035678    -0.41100
N584        N  0.47942966  0.64027842  0.80632794    -0.42500
H585        H  0.48425579  0.58844117  0.87894602     0.13600
H586        H  0.36010696  0.54891635  0.90046416     0.10100
H587        H  0.35423897  0.55225229  0.81503060     0.11200
H588        H  0.39652546  0.67719777  0.83108132     0.17000
C589        C  0.42158039  0.79280428  0.81156492    -0.01200
C590        C  0.40378674  0.79743239  0.84341710     0.07400
C591        C  0.36989413  0.77067711  0.85295445    -0.07200
C592        C  0.35322203  0.73968083  0.83089389     0.04800
C593        C  0.37074084  0.73493880  0.79844990    -0.14400
C594        C  0.40532187  0.76150472  0.79001614    -0.07700
C595        C  0.41942252  0.83039444  0.86640945     0.05800
C596        C  0.40589741  0.85160388  0.86106952    -0.08800
C597        C  0.41922380  0.88260417  0.88274723     0.00800
C598        C  0.44659846  0.89275318  0.91080762     0.00600
C599        C  0.46025187  0.87145548  0.91573556    -0.12400
C600        C  0.44680349  0.84044373  0.89401765     0.01100
C601        C  0.40490789  0.90380595  0.87452009     0.40400
C602        C  0.46074174  0.81880629  0.90141072     0.37000
C603        C  0.45583506  0.82044077  0.79931331     0.36800
C604        C  0.31782566  0.71417610  0.84190381     0.37500
N605        N  0.39343011  0.92076621  0.86778459    -0.43300
N606        N  0.47185518  0.80141150  0.90732367    -0.43700
N607        N  0.28964969  0.69439881  0.85225391    -0.41100
N608        N  0.48318667  0.84279075  0.78946125    -0.42500
H609        H  0.41940814  0.75816994  0.76575268     0.13600
H610        H  0.35619138  0.77431566  0.87746615     0.10100
H611        H  0.38491566  0.84393005  0.83965326     0.11200
H612        H  0.48101164  0.87862511  0.93729207     0.17000
C613        C  0.22599809  0.59334273  0.84193902    -0.01200
C614        C  0.20203108  0.60383805  0.83598559     0.07400
C615        C  0.20953987  0.62967487  0.80741388    -0.07200
C616        C  0.24020515  0.64481329  0.78459067     0.04800
C617        C  0.26382485  0.63380428  0.79004348    -0.14400
C618        C  0.25655058  0.60831005  0.81894149    -0.07700
C619        C  0.16960830  0.58918280  0.86023623     0.05800
C620        C  0.16561367  0.61108079  0.88651463    -0.08800
C621        C  0.13577947  0.59825867  0.91060229     0.00800
C622        C  0.10918843  0.56268806  0.90869008     0.00600
C623        C  0.11313190  0.54097095  0.88181830    -0.12400
C624        C  0.14276304  0.55396749  0.85739729     0.01100
C625        C  0.13395081  0.62195950  0.93807388     0.40400
C626        C  0.14472113  0.53094390  0.82891762     0.37000
C627        C  0.22032617  0.56802782  0.87222991     0.36800
C628        C  0.24786495  0.67308042  0.75782700     0.37500
N629        N  0.13256562  0.64102282  0.96005812    -0.43300
N630        N  0.14642371  0.51262761  0.80601829    -0.43700
N631        N  0.25399002  0.69585722  0.73659616    -0.41100
N632        N  0.21580846  0.54768393  0.89642830    -0.42500
H633        H  0.27486744  0.60013652  0.82357975     0.13600
H634        H  0.19154328  0.63830970  0.80331638     0.10100
H635        H  0.18618334  0.63823307  0.88863229     0.11200
H636        H  0.09277754  0.51376566  0.87949948     0.17000
C637        C  0.42815778  0.56929010  0.65503277     0.02200
C638        C  0.41174567  0.58511452  0.63723518     0.07400
C639        C  0.41103003  0.58711057  0.59505638    -0.07200
C640        C  0.42616393  0.57358578  0.57039667     0.04800
C641        C  0.44308607  0.55788863  0.58804969    -0.14400
C642        C  0.44365475  0.55598354  0.63053194    -0.07700
C643        C  0.39600141  0.60070534  0.66187712     0.05800
C644        C  0.41728048  0.62802783  0.68837582    -0.08800
C645        C  0.40376012  0.64427379  0.71100889     0.00800
C646        C  0.36841766  0.63344470  0.70684192     0.00600
C647        C  0.34733159  0.60672844  0.67971763    -0.12400
C648        C  0.36060893  0.58987204  0.65786281     0.01100
C649        C  0.42703440  0.67307940  0.73668452     0.40400
C650        C  0.33715404  0.56075235  0.63266387     0.37000
C651        C  0.42873856  0.56572116  0.69834741     0.36800
C652        C  0.42366490  0.57646395  0.52723209     0.37500
N653        N  0.44577580  0.69623438  0.75713943    -0.43300
N654        N  0.31831205  0.53729727  0.61264078    -0.43700
N655        N  0.42146644  0.57877439  0.49268618    -0.41100
N656        N  0.42916770  0.56292932  0.73306222    -0.42500
H657        H  0.45606028  0.54385025  0.64488446     0.13600
H658        H  0.39868978  0.59956860  0.58128876     0.10100
H659        H  0.44466256  0.63699120  0.69093716     0.11200
H660        H  0.32012792  0.59834197  0.67655474     0.17000
C661        C  0.37226820  0.79109561  0.69376830    -0.01200
C662        C  0.39498669  0.79844505  0.66100140     0.07400
C663        C  0.40464945  0.77479179  0.65059459    -0.07200
C664        C  0.39233927  0.74416875  0.67262263     0.04800
C665        C  0.36984163  0.73684986  0.70587956    -0.14400
C666        C  0.35961587  0.76035089  0.71555398    -0.07700
C667        C  0.40933538  0.83084994  0.63736643     0.05800
C668        C  0.43390143  0.86243919  0.65543786    -0.08800
C669        C  0.44952475  0.89350532  0.63351514     0.00800
C670        C  0.44008400  0.89326255  0.59264792     0.00600
C671        C  0.41497194  0.86139450  0.57499247    -0.12400
C672        C  0.39984504  0.83040308  0.59680719     0.01100
C673        C  0.47624892  0.92466835  0.65334996     0.40400
C674        C  0.37465059  0.79844261  0.57693847     0.37000
C675        C  0.36100750  0.81434154  0.70498838     0.36800
C676        C  0.40375663  0.72127389  0.66047174     0.37500
N677        N  0.49779252  0.94953848  0.66930926    -0.43300
N678        N  0.35458224  0.77283931  0.56093527    -0.43700
N679        N  0.41304010  0.70324759  0.64971293    -0.41100
N680        N  0.35198487  0.83297473  0.71401186    -0.42500
H681        H  0.34134157  0.75448867  0.73999920     0.13600
H682        H  0.42215548  0.78049272  0.62530960     0.10100
H683        H  0.44151207  0.86263878  0.68655615     0.11200
H684        H  0.40717454  0.86050949  0.54382567     0.17000
C685        C  0.17304472  0.57209925  0.58636390    -0.01200
C686        C  0.17498772  0.58086124  0.62748366     0.07400
C687        C  0.14532820  0.57604194  0.64709008    -0.07200
C688        C  0.11387773  0.56295309  0.62635464     0.04800
C689        C  0.11177625  0.55459190  0.58472692    -0.14400
C690        C  0.14171194  0.55921477  0.56537015    -0.07700
C691        C  0.20806825  0.59683331  0.65033625     0.05800
C692        C  0.23461323  0.63078936  0.64080821    -0.08800
C693        C  0.26476292  0.64845184  0.66437942     0.00800
C694        C  0.26883493  0.63179013  0.69806622     0.00600
C695        C  0.24288508  0.59709324  0.70621019    -0.12400
C696        C  0.21241802  0.57980595  0.68316432     0.01100
C697        C  0.28961271  0.68423716  0.65447379     0.40400
C698        C  0.18576691  0.54478867  0.69400957     0.37000
C699        C  0.20266314  0.57543405  0.56540193     0.36800
C700        C  0.08471105  0.55929801  0.64868735     0.37500
N701        N  0.30868306  0.71287148  0.64543104    -0.43300
N702        N  0.16428718  0.51677612  0.70277359    -0.43700
N703        N  0.06140201  0.55633919  0.66677940    -0.41100
N704        N  0.22636092  0.57795493  0.54869160    -0.42500
H705        H  0.14068939  0.55251429  0.53372803     0.13600
H706        H  0.14695888  0.58306668  0.67872232     0.10100
H707        H  0.23109297  0.64401136  0.61575220     0.11200
H708        H  0.24612589  0.58362701  0.73117211     0.17000
C709        C  0.83692890  0.16832131  0.71031470     0.46300
H710        H  0.83867006  0.16864206  0.67685727    -0.02700
C711        C  0.83232833  0.16637519  0.78881053     0.46300
H712        H  0.83038884  0.16503254  0.82227067    -0.02700
C713        C  0.85544987  0.20447462  0.73018795    -0.16400
C714        C  0.79934427  0.14992991  0.72571584    -0.16200
C715        C  0.85257378  0.14927890  0.73057798    -0.16600
C716        C  0.85344164  0.20346628  0.77187079    -0.16500
C717        C  0.79697025  0.14935652  0.76718341    -0.16100
C718        C  0.84969055  0.14784708  0.77187877    -0.16400
C719        C  0.66076499  0.34256609  0.28991403     0.46300
H720        H  0.66073093  0.34337584  0.32344132    -0.02700
C721        C  0.66146785  0.34129913  0.21117214     0.46300
H722        H  0.66201434  0.34124642  0.17762175    -0.02700
C723        C  0.69701231  0.35630867  0.27207042    -0.16400
C724        C  0.63866342  0.30578732  0.27214244    -0.16200
C725        C  0.64743610  0.36388920  0.26978422    -0.16600
C726        C  0.69752466  0.35605385  0.23058820    -0.16500
C727        C  0.63825641  0.30511236  0.23036903    -0.16100
C728        C  0.64780100  0.36320335  0.22844899    -0.16400
O729        O  0.99199718  0.43928045  0.94899931    -0.77700
C730        C  0.57761932  0.04721610  0.93466065     0.83400
O731        O  0.52756609  0.48617094  0.08419287    -0.78800
O732        O  0.53648883  0.08770239  0.02741459    -0.80300
O733        O  0.93732546  0.00792634  0.94805137    -0.80100
O734        O  0.94166629  0.43651606  0.94425712    -0.78700
Zn735      Zn  0.52335649  0.48281607  0.98138052     1.55700
O736        O  0.98719944  0.05915496  0.94472653    -0.80100
Cd737      Cd  0.94968407  0.47711436  0.98047229     1.59700
Cd738      Cd  0.99774758  0.00453853  0.06122183     1.59600
O739        O  0.91506960  0.45573147  0.02778766    -0.80100
O740        O  0.99852613  0.00422750  0.00060228    -1.90600
Cd741      Cd  0.52147876  0.05287674  0.97980381     1.59900
O742        O  0.94730861  0.47329314  0.08345235    -0.80000
O743        O  0.56504427  0.06537556  0.94536747    -0.78700
C744        C  0.54363260  0.47366881  0.06662757     0.83800
C745        C  0.96088297  0.42466125  0.93583707     0.83500
O746        O  0.56367458  0.01571539  0.94570912    -0.77600
C747        C  0.95493384  0.03939275  0.93635778     0.84300
O748        O  0.54323242  0.47068788  0.02830930    -0.77700
C749        C  0.91770010  0.45606655  0.06608867     0.84400
C750        C  0.53299313  0.08437925  0.06571795     0.84800
O751        O  0.51838175  0.05468326  0.08265384    -0.80200
O752        O  0.50822163  0.06983107  0.44561930    -0.77700
C753        C  0.91678257  0.46307498  0.43611298     0.83400
O754        O  0.97560766  0.03036793  0.58143524    -0.78800
O755        O  0.95367906  0.42107670  0.52883976    -0.80300
O756        O  0.55045904  0.49346294  0.43904515    -0.80100
O757        O  0.55757814  0.07062656  0.44352894    -0.78700
Zn758      Zn  0.97482966  0.02738627  0.47833298     1.55700
O759        O  0.49988366  0.44315814  0.44493654    -0.80100
Cd760      Cd  0.54532222  0.02689772  0.47631693     1.59700
Cd761      Cd  0.99896612  0.00487611  0.55903724     1.59600
O762        O  0.58133159  0.04161824  0.52223104    -0.80100
O763        O  0.99722232  0.00395997  0.49862905    -1.90600
Cd764      Cd  0.97056693  0.45468978  0.48100163     1.59900
O765        O  0.55010041  0.02878043  0.57867271    -0.80000
O766        O  0.92752995  0.44399070  0.44881025    -0.78700
C767        C  0.95981064  0.04298750  0.56350802     0.83800
C768        C  0.53983521  0.08394447  0.43434819     0.83500
O769        O  0.93298117  0.49548545  0.44367069    -0.77600
C770        C  0.53060593  0.46130246  0.43089761     0.84300
O771        O  0.95787405  0.04281096  0.52511173    -0.77700
C772        C  0.57925046  0.04101648  0.56068104     0.84400
C773        C  0.95633996  0.42495328  0.56699327     0.84800
O774        O  0.97241185  0.45502877  0.58306162    -0.80200
C775        C  0.62274502  0.23883167  0.14999329    -0.01200
C776        C  0.58880754  0.21115150  0.15890710     0.07400
C777        C  0.57009146  0.21489715  0.19010073    -0.07200
C778        C  0.58495918  0.24559671  0.21281025     0.04800
C779        C  0.61974192  0.27283522  0.20522068    -0.14400
C780        C  0.63767582  0.26928861  0.17285279    -0.07700
C781        C  0.57252025  0.17826134  0.13567709     0.05800
C782        C  0.56973845  0.14895534  0.15350842    -0.08800
C783        C  0.55663905  0.11799993  0.13168040     0.00800
C784        C  0.54611310  0.11611102  0.09093811     0.00600
C785        C  0.54840724  0.14551782  0.07355306    -0.12400
C786        C  0.56118637  0.17626503  0.09561042     0.01100
C787        C  0.55563577  0.08921088  0.15154591     0.40400
C788        C  0.56207380  0.20537528  0.07679040     0.37000
C789        C  0.64298493  0.23629563  0.11797868     0.36800
C790        C  0.56311674  0.24933953  0.24149855     0.37500
N791        N  0.55481635  0.06616321  0.16755933    -0.43300
N792        N  0.56269023  0.22872136  0.06190294    -0.43700
N793        N  0.54531521  0.25228756  0.26408251    -0.41100
N794        N  0.65922042  0.23431484  0.09230384    -0.42500
H795        H  0.66369830  0.29022834  0.16543764     0.13600
H796        H  0.54356935  0.19398675  0.19620556     0.10100
H797        H  0.57852165  0.15053493  0.18436804     0.11200
H798        H  0.53993794  0.14446167  0.04266374     0.17000
C799        C  0.76671409  0.35658521  0.16591450    -0.01200
C800        C  0.79224553  0.39232187  0.16362329     0.07400
C801        C  0.78595105  0.41618760  0.18242024    -0.07200
C802        C  0.75495617  0.40494684  0.20353540     0.04800
C803        C  0.72971149  0.36921714  0.20634465    -0.14400
C804        C  0.73578328  0.34543464  0.18708531    -0.07700
C805        C  0.82475473  0.40567683  0.13985484     0.05800
C806        C  0.82228976  0.39941717  0.09820058    -0.08800
C807        C  0.85206495  0.41401741  0.07387903     0.00800
C808        C  0.88542980  0.43662559  0.09108906     0.00600
C809        C  0.88778162  0.44150671  0.13328699    -0.12400
C810        C  0.85791233  0.42599290  0.15763079     0.01100
C811        C  0.84714820  0.40470513  0.03159012     0.40400
C812        C  0.86190940  0.43054297  0.20087892     0.37000
C813        C  0.77203089  0.33084395  0.14775695     0.36800
C814        C  0.74919349  0.43064794  0.22071474     0.37500
N815        N  0.84305556  0.39693978  0.99779931    -0.43300
N816        N  0.86510343  0.43380594  0.23557326    -0.43700
N817        N  0.74492705  0.45171701  0.23381378    -0.41100
N818        N  0.77616956  0.31014117  0.13315828    -0.42500
H819        H  0.71696384  0.31792183  0.18994076     0.13600
H820        H  0.80510690  0.44375758  0.17995611     0.10100
H821        H  0.79682796  0.38337211  0.08448501     0.11200
H822        H  0.91297705  0.45781341  0.14744012     0.17000
C823        C  0.63822989  0.43550798  0.18735547    -0.01200
C824        C  0.60958019  0.41736401  0.16123300     0.07400
C825        C  0.59436789  0.38164274  0.15575602    -0.07200
C826        C  0.60688029  0.36360221  0.17641886     0.04800
C827        C  0.63540287  0.38153535  0.20299881    -0.14400
C828        C  0.65104576  0.41756983  0.20777154    -0.07700
C829        C  0.59488519  0.43485758  0.13889282     0.05800
C830        C  0.60599725  0.44572551  0.09923503    -0.08800
C831        C  0.59046243  0.45933564  0.07550472     0.00800
C832        C  0.56277127  0.46181197  0.09143147     0.00600
C833        C  0.55262201  0.45196706  0.13186424    -0.12400
C834        C  0.56840358  0.43853130  0.15555157     0.01100
C835        C  0.60406228  0.47108514  0.03529273     0.40400
C836        C  0.55659000  0.42794791  0.19656311     0.37000
C837        C  0.65452954  0.47233720  0.19387546     0.36800
C838        C  0.58872990  0.32660078  0.17074924     0.37500
N839        N  0.61507920  0.48056874  0.00312932    -0.43300
N840        N  0.54724696  0.41949451  0.22945953    -0.43700
N841        N  0.57317902  0.29700574  0.16500525    -0.41100
N842        N  0.66752479  0.50185895  0.19911709    -0.42500
H843        H  0.67307303  0.43164662  0.22788454     0.13600
H844        H  0.57223495  0.36772581  0.13563326     0.10100
H845        H  0.62663832  0.44313835  0.08663845     0.11200
H846        H  0.53168457  0.45389109  0.14475577     0.17000
C847        C  0.62121076  0.21888097  0.30841618    -0.01200
C848        C  0.59982552  0.21229927  0.34251211     0.07400
C849        C  0.59295270  0.23765252  0.35491508    -0.07200
C850        C  0.60550447  0.26836043  0.33292480     0.04800
C851        C  0.62590341  0.27440034  0.29796816    -0.14400
C852        C  0.63453342  0.24994824  0.28710833    -0.07700
C853        C  0.58422379  0.17917066  0.36549764     0.05800
C854        C  0.60602587  0.16891187  0.38158602    -0.08800
C855        C  0.59240396  0.13779854  0.40306657     0.00800
C856        C  0.55602955  0.11662475  0.41019355     0.00600
C857        C  0.53432261  0.12716533  0.39403961    -0.12400
C858        C  0.54796358  0.15776505  0.37156974     0.01100
C859        C  0.61668697  0.12865644  0.41713175     0.40400
C860        C  0.52405956  0.16604797  0.35398359     0.37000
C861        C  0.62880313  0.19368389  0.29362228     0.36800
C862        C  0.59569946  0.29224893  0.34628815     0.37500
N863        N  0.63627754  0.12135564  0.42797218    -0.43300
N864        N  0.50496702  0.17272824  0.33983369    -0.43700
N865        N  0.58749522  0.31089874  0.35796982    -0.41100
N866        N  0.63495438  0.17355032  0.28171052    -0.42500
H867        H  0.65124544  0.25479657  0.26126252     0.13600
H868        H  0.57716607  0.23313246  0.38160343     0.10100
H869        H  0.63394912  0.18533786  0.37724998     0.11200
H870        H  0.50638386  0.11122195  0.39843753     0.17000
C871        C  0.76761773  0.41136084  0.34725574    -0.01200
C872        C  0.79066057  0.39976837  0.34222280     0.07400
C873        C  0.78097175  0.37086467  0.31766386    -0.07200
C874        C  0.74956871  0.35488799  0.29617530     0.04800
C875        C  0.72820546  0.36884608  0.29803010    -0.14400
C876        C  0.73649397  0.39547234  0.32559332    -0.07700
C877        C  0.82367719  0.41592860  0.36489093     0.05800
C878        C  0.82544484  0.39877218  0.39898440    -0.08800
C879        C  0.85539954  0.41395311  0.42284042     0.00800
C880        C  0.88441253  0.44680605  0.41227328     0.00600
C881        C  0.88252910  0.46404373  0.37814572    -0.12400
C882        C  0.85241875  0.44881203  0.35437177     0.01100
C883        C  0.85497297  0.39610130  0.45914314     0.40400
C884        C  0.85153412  0.46723015  0.31933494     0.37000
C885        C  0.77505098  0.43894543  0.37513530     0.36800
C886        C  0.73826193  0.32240967  0.27609119     0.37500
N887        N  0.85461261  0.38194512  0.48835738    -0.43300
N888        N  0.85080439  0.48200199  0.29127701    -0.43700
N889        N  0.72916803  0.29599287  0.26087398    -0.41100
N890        N  0.78104236  0.46099014  0.39757524    -0.42500
H891        H  0.71847529  0.40364948  0.33041232     0.13600
H892        H  0.79767728  0.36049250  0.31586192     0.10100
H893        H  0.80301477  0.37379724  0.40746254     0.11200
H894        H  0.90472132  0.48921499  0.36980710     0.17000
C895        C  0.57401939  0.37196142  0.30965804    -0.01200
C896        C  0.59186969  0.40255192  0.33287850     0.07400
C897        C  0.62823405  0.42073263  0.33507018    -0.07200
C898        C  0.64706811  0.40937663  0.31403398     0.04800
C899        C  0.62924453  0.37780014  0.29250622    -0.14400
C900        C  0.59277261  0.35964668  0.29005814    -0.07700
C901        C  0.57353145  0.41651538  0.35507668     0.05800
C902        C  0.54998083  0.39642874  0.38568565    -0.08800
C903        C  0.53486415  0.41006725  0.41014225     0.00800
C904        C  0.54382694  0.44470338  0.40436299     0.00600
C905        C  0.56677889  0.46443248  0.37308359    -0.12400
C906        C  0.58136547  0.45056227  0.34826249     0.01100
C907        C  0.51173418  0.38851254  0.44210452     0.40400
C908        C  0.60420031  0.47170186  0.31589295     0.37000
C909        C  0.53678562  0.35367671  0.30422952     0.36800
C910        C  0.68420651  0.43286187  0.31199174     0.37500
N911        N  0.99316993  0.37119066  0.46764861    -0.43300
N912        N  0.62254041  0.48859502  0.28997665    -0.43700
N913        N  0.71369045  0.45356047  0.31076845    -0.41100
N914        N  0.50695756  0.33922314  0.29973397    -0.42500
H915        H  0.57900203  0.33599937  0.27231831     0.13600
H916        H  0.64206005  0.44463720  0.35235803     0.10100
H917        H  0.54421116  0.37036924  0.39124391     0.11200
H918        H  0.57332518  0.49080643  0.36796025     0.17000
C919        C  0.94216971  0.09456946  0.86137734    -0.01200
C920        C  0.90708019  0.08385368  0.86781570     0.07400
C921        C  0.88717601  0.05735640  0.89568230    -0.07200
C922        C  0.90194990  0.04211823  0.91793203     0.04800
C923        C  0.93752428  0.05361717  0.91251399    -0.14400
C924        C  0.95717199  0.07979569  0.88400444    -0.07700
C925        C  0.89068827  0.09990198  0.84556722     0.05800
C926        C  0.86362671  0.07959040  0.81836244    -0.08800
C927        C  0.84883444  0.09430758  0.79522623     0.00800
C928        C  0.86182006  0.13012796  0.79851561     0.00600
C929        C  0.88728577  0.14989883  0.82754647    -0.12400
C930        C  0.90171505  0.13508493  0.85110874     0.01100
C931        C  0.81951920  0.07191528  0.76966489     0.40400
C932        C  0.92749388  0.15632033  0.88106659     0.37000
C933        C  0.96294750  0.11999408  0.83089583     0.36800
C934        C  0.88022959  0.01571383  0.94707185     0.37500
N935        N  0.79583512  0.05379987  0.74948411    -0.43300
N936        N  0.94809212  0.17329381  0.90516018    -0.43700
N937        N  0.86275640  0.99452445  0.97035035    -0.41100
N938        N  0.97943114  0.14028210  0.80633099    -0.42500
H939        H  0.98425602  0.08844297  0.87894761     0.13600
H940        H  0.86010530  0.04891346  0.90045867     0.10100
H941        H  0.85424208  0.05225167  0.81502389     0.11200
H942        H  0.89652056  0.17719471  0.83108062     0.17000
C943        C  0.92157903  0.29280385  0.81156097    -0.01200
C944        C  0.90378561  0.29743104  0.84341420     0.07400
C945        C  0.86989362  0.27067492  0.85295236    -0.07200
C946        C  0.85322184  0.23967868  0.83089177     0.04800
C947        C  0.87074030  0.23493751  0.79844656    -0.14400
C948        C  0.90532081  0.26150438  0.79001189    -0.07700
C949        C  0.91942094  0.33039281  0.86640716     0.05800
C950        C  0.90589342  0.35160051  0.86107031    -0.08800
C951        C  0.91921911  0.38260030  0.88274891     0.00800
C952        C  0.94659600  0.39275091  0.91080656     0.00600
C953        C  0.96025148  0.37145473  0.91573170    -0.12400
C954        C  0.94680339  0.34044321  0.89401345     0.01100
C955        C  0.90489951  0.40379950  0.87452583     0.40400
C956        C  0.96074312  0.31880682  0.90140494     0.37000
C957        C  0.95583321  0.32044111  0.79930881     0.36800
C958        C  0.81782620  0.21417310  0.84190351     0.37500
N959        N  0.89341848  0.42075739  0.86779367    -0.43300
N960        N  0.97185764  0.30141284  0.90731696    -0.43700
N961        N  0.78965099  0.19439545  0.85225569    -0.41100
N962        N  0.98318440  0.34279168  0.78945644    -0.42500
H963        H  0.91940692  0.25817032  0.76574762     0.13600
H964        H  0.85619108  0.27431268  0.87746497     0.10100
H965        H  0.88491020  0.34392560  0.83965601     0.11200
H966        H  0.98101259  0.37862525  0.93728651     0.17000
C967        C  0.72599664  0.09334613  0.84193844    -0.01200
C968        C  0.70203048  0.10384234  0.83598364     0.07400
C969        C  0.70954058  0.12967927  0.80741159    -0.07200
C970        C  0.74020612  0.14481649  0.78458887     0.04800
C971        C  0.76382450  0.13380585  0.79004218    -0.14400
C972        C  0.75654918  0.10831197  0.81894111    -0.07700
C973        C  0.66960720  0.08918757  0.86023319     0.05800
C974        C  0.66561294  0.11108537  0.88651231    -0.08800
C975        C  0.63577914  0.09826303  0.91060079     0.00800
C976        C  0.60918808  0.06269239  0.90868843     0.00600
C977        C  0.61313085  0.04097568  0.88181532    -0.12400
C978        C  0.64276164  0.05397239  0.85739370     0.01100
C979        C  0.63395115  0.12196340  0.93807381     0.40400
C980        C  0.64471935  0.03094894  0.82891345     0.37000
C981        C  0.72032357  0.06803165  0.87223046     0.36800
C982        C  0.74786760  0.17308402  0.75782497     0.37500
N983        N  0.63256650  0.14102629  0.96005936    -0.43300
N984        N  0.64642150  0.01263260  0.80601378    -0.43700
N985        N  0.75399424  0.19586112  0.73659382    -0.41100
N986        N  0.71580473  0.04768809  0.89642986    -0.42500
H987        H  0.77486516  0.10013742  0.82358009     0.13600
H988        H  0.69154483  0.13831502  0.80331339     0.10100
H989        H  0.68618287  0.13823759  0.88863042     0.11200
H990        H  0.59277636  0.01377044  0.87949625     0.17000
C991        C  0.92815151  0.06928331  0.65502904     0.02200
C992        C  0.91174051  0.08510867  0.63723087     0.07400
C993        C  0.91102671  0.08710587  0.59505205    -0.07200
C994        C  0.92616217  0.07358225  0.57039297     0.04800
C995        C  0.94308399  0.05788497  0.58804667    -0.14400
C996        C  0.94365001  0.05597788  0.63052889    -0.07700
C997        C  0.89599685  0.10070048  0.66187232     0.05800
C998        C  0.91727623  0.12802214  0.68837184    -0.08800
C999        C  0.90375678  0.14426909  0.71100471     0.00800
C1000       C  0.86841491  0.13344197  0.70683684     0.00600
C1001       C  0.84732867  0.10672688  0.67971124    -0.12400
C1002       C  0.86060504  0.08986933  0.65785669     0.01100
C1003       C  0.92703151  0.17307349  0.73668145     0.40400
C1004       C  0.83714963  0.06075035  0.63265720     0.37000
C1005       C  0.92872975  0.06571244  0.69834361     0.36800
C1006       C  0.92366549  0.07646220  0.52722830     0.37500
N1007       N  0.94577340  0.19622746  0.75713733    -0.43300
N1008       N  0.81830706  0.03729575  0.61263381    -0.43700
N1009       N  0.92146894  0.07877414  0.49268230    -0.41100
N1010       N  0.92915686  0.06291897  0.73305836    -0.42500
H1011       H  0.95605479  0.04384404  0.64488190     0.13600
H1012       H  0.89868716  0.09956443  0.58128391     0.10100
H1013       H  0.94465784  0.13698402  0.69093413     0.11200
H1014       H  0.82012543  0.09834179  0.67654758     0.17000
C1015       C  0.87226530  0.29109352  0.69376462    -0.01200
C1016       C  0.89498200  0.29844234  0.66099586     0.07400
C1017       C  0.90464433  0.27478885  0.65058828    -0.07200
C1018       C  0.89233555  0.24416640  0.67261716     0.04800
C1019       C  0.86983954  0.23684807  0.70587567    -0.14400
C1020       C  0.85961409  0.26034921  0.71555088    -0.07700
C1021       C  0.90933061  0.33084754  0.63736106     0.05800
C1022       C  0.93389419  0.36243704  0.65543399    -0.08800
C1023       C  0.94951790  0.39350354  0.63351194     0.00800
C1024       C  0.94008090  0.39326089  0.59264303     0.00600
C1025       C  0.91497107  0.36139259  0.57498604    -0.12400
C1026       C  0.89984305  0.33040093  0.59680058     0.01100
C1027       C  0.97623804  0.42466707  0.65334980     0.40400
C1028       C  0.87464986  0.29844052  0.57693070     0.37000
C1029       C  0.86100536  0.31433976  0.70498623     0.36800
C1030       C  0.90375273  0.22127152  0.66046566     0.37500
N1031       N  0.99777822  0.44953770  0.66931169    -0.43300
N1032       N  0.85458238  0.27283738  0.56092661    -0.43700
N1033       N  0.91303588  0.20324502  0.64970663    -0.41100
N1034       N  0.85198337  0.33297321  0.71401096    -0.42500
H1035       H  0.84134096  0.25448746  0.73999733     0.13600
H1036       H  0.92214936  0.28048935  0.62530229     0.10100
H1037       H  0.94150253  0.36263664  0.68655342     0.11200
H1038       H  0.90717606  0.36050757  0.54381806     0.17000
C1039       C  0.67304095  0.07209309  0.58636581    -0.01200
C1040       C  0.67498566  0.08086192  0.62748334     0.07400
C1041       C  0.64532858  0.07605095  0.64708719    -0.07200
C1042       C  0.61387864  0.06296338  0.62635130     0.04800
C1043       C  0.61177536  0.05459482  0.58472589    -0.14400
C1044       C  0.64170864  0.05920980  0.56537149    -0.07700
C1045       C  0.70806591  0.09683309  0.65033572     0.05800
C1046       C  0.73461238  0.13078778  0.64080520    -0.08800
C1047       C  0.76476202  0.14845017  0.66437633     0.00800
C1048       C  0.76883282  0.13178925  0.69806485     0.00600
C1049       C  0.74288122  0.09709346  0.70621137    -0.12400
C1050       C  0.71241373  0.07980678  0.68316632     0.01100
C1051       C  0.78961267  0.18423487  0.65446901     0.40400
C1052       C  0.68575979  0.04479169  0.69401574     0.37000
C1053       C  0.70265705  0.07541981  0.56540697     0.36800
C1054       C  0.58471469  0.05931823  0.64868037     0.37500
N1055       N  0.80868344  0.21286877  0.64542491    -0.43300
N1056       N  0.66427766  0.01678108  0.70278341    -0.43700
N1057       N  0.56140781  0.05636751  0.66676941    -0.41100
N1058       N  0.72635293  0.07793421  0.54869920    -0.42500
H1059       H  0.64068430  0.05250370  0.53373121     0.13600
H1060       H  0.64696092  0.08308141  0.67871764     0.10100
H1061       H  0.73109320  0.14400903  0.61574744     0.11200
H1062       H  0.74612083  0.08362778  0.73117479     0.17000
C1063       C  0.83692874  0.66832159  0.71031591     0.46300
H1064       H  0.83866981  0.66864274  0.67685843    -0.02700
C1065       C  0.83232842  0.66637462  0.78881178     0.46300
H1066       H  0.83038893  0.66503156  0.82227197    -0.02700
C1067       C  0.85544957  0.70447470  0.73018970    -0.16400
C1068       C  0.79934413  0.64992978  0.72571725    -0.16200
C1069       C  0.85257397  0.64927923  0.73057852    -0.16600
C1070       C  0.85344144  0.70346590  0.77187257    -0.16500
C1071       C  0.79697032  0.64935594  0.76718483    -0.16100
C1072       C  0.84969085  0.64784696  0.77187935    -0.16400
C1073       C  0.66076469  0.84256647  0.28991425     0.46300
H1074       H  0.66073043  0.84337619  0.32344153    -0.02700
C1075       C  0.66146782  0.84129944  0.21117233     0.46300
H1076       H  0.66201436  0.84124664  0.17762198    -0.02700
C1077       C  0.69701212  0.85630924  0.27207082    -0.16400
C1078       C  0.63866331  0.80578768  0.27214266    -0.16200
C1079       C  0.64743572  0.86388941  0.26978420    -0.16600
C1080       C  0.69752461  0.85605436  0.23058860    -0.16500
C1081       C  0.63825644  0.80511267  0.23036927    -0.16100
C1082       C  0.64780077  0.86320356  0.22844900    -0.16400
O1083       O  0.99199714  0.93928103  0.94899925    -0.77700
C1084       C  0.57761943  0.54721534  0.93466141     0.83400
O1085       O  0.52756557  0.98617091  0.08419244    -0.78800
O1086       O  0.53648899  0.58770213  0.02741501    -0.80300
O1087       O  0.93732589  0.50792573  0.94805128    -0.80100
O1088       O  0.94166624  0.93651664  0.94425672    -0.78700
Zn1089     Zn  0.52335654  0.98281672  0.98137999     1.55700
O1090       O  0.98719979  0.55915438  0.94472598    -0.80100
Cd1091     Cd  0.94968389  0.97711488  0.98047196     1.59700
Cd1092     Cd  0.99774775  0.50453823  0.06122219     1.59600
O1093       O  0.91506943  0.95573184  0.02778747    -0.80100
O1094       O  0.99852620  0.50422701  0.00060262    -1.90600
Cd1095     Cd  0.52147897  0.55287641  0.97980414     1.59900
O1096       O  0.94730853  0.97329369  0.08345210    -0.80000
O1097       O  0.56504458  0.56537501  0.94536813    -0.78700
C1098       C  0.54363223  0.97366892  0.06662716     0.83800
C1099       C  0.96088291  0.92466174  0.93583700     0.83500
O1100       O  0.56367450  0.51571462  0.94570981    -0.77600
C1101       C  0.95493420  0.53939199  0.93635718     0.84300
O1102       O  0.54323241  0.97068837  0.02830886    -0.77700
C1103       C  0.91769999  0.95606706  0.06608847     0.84400
C1104       C  0.53299327  0.58437906  0.06571839     0.84800
O1105       O  0.51838179  0.55468307  0.08265432    -0.80200
O1106       O  0.50822187  0.56983126  0.44561846    -0.77700
C1107       C  0.91678231  0.96307475  0.43611362     0.83400
O1108       O  0.97560671  0.53036758  0.58143481    -0.78800
O1109       O  0.95367862  0.92107648  0.52884128    -0.80300
O1110       O  0.55045794  0.99346229  0.43904422    -0.80100
O1111       O  0.55757854  0.57062698  0.44352907    -0.78700
Zn1112     Zn  0.97482980  0.52738670  0.47833252     1.55700
O1113       O  0.49988307  0.94315719  0.44493749    -0.80100
Cd1114     Cd  0.54532266  0.52689826  0.47631747     1.59700
Cd1115     Cd  0.99896544  0.50487602  0.55903702     1.59600
O1116       O  0.58133152  0.54161890  0.52223231    -0.80100
O1117       O  0.99722246  0.50396040  0.49862876    -1.90600
Cd1118     Cd  0.97056640  0.95468919  0.48100259     1.59900
O1119       O  0.55009962  0.52878038  0.57867347    -0.80000
O1120       O  0.92752945  0.94399032  0.44881110    -0.78700
C1121       C  0.95981038  0.54298785  0.56350749     0.83800
C1122       C  0.53983553  0.58394467  0.43434768     0.83500
O1123       O  0.93298113  0.99548526  0.44367114    -0.77600
C1124       C  0.53060498  0.96130164  0.43089753     0.84300
O1125       O  0.95787441  0.54281187  0.52511115    -0.77700
C1126       C  0.57924992  0.54101678  0.56068229     0.84400
C1127       C  0.95634016  0.92495347  0.56699474     0.84800
O1128       O  0.97241266  0.95502915  0.58306259    -0.80200
C1129       C  0.62274568  0.73883164  0.14999423    -0.01200
C1130       C  0.58880811  0.71115152  0.15890771     0.07400
C1131       C  0.57009184  0.71489725  0.19010110    -0.07200
C1132       C  0.58495942  0.74559688  0.21281049     0.04800
C1133       C  0.61974214  0.77283543  0.20522104    -0.14400
C1134       C  0.63767634  0.76928874  0.17285351    -0.07700
C1135       C  0.57252082  0.67826135  0.13567757     0.05800
C1136       C  0.56973841  0.64895511  0.15350905    -0.08800
C1137       C  0.55663897  0.61799967  0.13168103     0.00800
C1138       C  0.54611344  0.61611094  0.09093854     0.00600
C1139       C  0.54840837  0.64551804  0.07355325    -0.12400
C1140       C  0.56118768  0.67626532  0.09561057     0.01100
C1141       C  0.55563522  0.58921044  0.15154671     0.40400
C1142       C  0.56207609  0.70537594  0.07679013     0.37000
C1143       C  0.64298590  0.73629549  0.11798002     0.36800
C1144       C  0.56311674  0.74933968  0.24149851     0.37500
N1145       N  0.55481550  0.56616263  0.16756026    -0.43300
N1146       N  0.56269332  0.72872233  0.06190235    -0.43700
N1147       N  0.54531494  0.75228755  0.26408218    -0.41100
N1148       N  0.65922149  0.73431458  0.09230545    -0.42500
H1149       H  0.66369878  0.79022836  0.16543861     0.13600
H1150       H  0.54356972  0.69398690  0.19620578     0.10100
H1151       H  0.57852124  0.65053454  0.18436888     0.11200
H1152       H  0.53993958  0.64446209  0.04266374     0.17000
C1153       C  0.76671446  0.85658632  0.16591495    -0.01200
C1154       C  0.79224561  0.89232304  0.16362350     0.07400
C1155       C  0.78595084  0.91618862  0.18242034    -0.07200
C1156       C  0.75495600  0.90494761  0.20353574     0.04800
C1157       C  0.72971160  0.86921787  0.20634518    -0.14400
C1158       C  0.73578363  0.84543548  0.18708595    -0.07700
C1159       C  0.82475481  0.90567817  0.13985494     0.05800
C1160       C  0.82228982  0.89941768  0.09820090    -0.08800
C1161       C  0.85206494  0.91401760  0.07387929     0.00800
C1162       C  0.88542980  0.93662638  0.09108904     0.00600
C1163       C  0.88778163  0.94150856  0.13328673    -0.12400
C1164       C  0.85791245  0.92599506  0.15763063     0.01100
C1165       C  0.84714821  0.90470437  0.03159072     0.40400
C1166       C  0.86190964  0.93054621  0.20087856     0.37000
C1167       C  0.77203147  0.83084519  0.14775743     0.36800
C1168       C  0.74919302  0.93064853  0.22071497     0.37500
N1169       N  0.84305551  0.89693818  0.99780016    -0.43300
N1170       N  0.86510381  0.93381008  0.23557284    -0.43700
N1171       N  0.74492635  0.95171748  0.23381382    -0.41100
N1172       N  0.77617034  0.81014251  0.13315887    -0.42500
H1173       H  0.71696443  0.81792278  0.18994143     0.13600
H1174       H  0.80510642  0.94375866  0.17995594     0.10100
H1175       H  0.79682798  0.88337210  0.08448543     0.11200
H1176       H  0.91297713  0.95781596  0.14743971     0.17000
C1177       C  0.63822957  0.93550803  0.18735499    -0.01200
C1178       C  0.60957929  0.91736379  0.16123334     0.07400
C1179       C  0.59436676  0.88164243  0.15575692    -0.07200
C1180       C  0.60687949  0.86360208  0.17641947     0.04800
C1181       C  0.63540255  0.88153543  0.20299873    -0.14400
C1182       C  0.65104566  0.91757001  0.20777090    -0.07700
C1183       C  0.59488427  0.93485730  0.13889302     0.05800
C1184       C  0.60599662  0.94572539  0.09923533    -0.08800
C1185       C  0.59046185  0.95933540  0.07550470     0.00800
C1186       C  0.56277062  0.96181179  0.09143122     0.00600
C1187       C  0.55262107  0.95196670  0.13186391    -0.12400
C1188       C  0.56840240  0.93853077  0.15555145     0.01100
C1189       C  0.60406170  0.97108451  0.03529261     0.40400
C1190       C  0.55658820  0.92794685  0.19656275     0.37000
C1191       C  0.65452959  0.97233740  0.19387424     0.36800
C1192       C  0.58872901  0.82660057  0.17075012     0.37500
N1193       N  0.61507858  0.98056770  0.00312905    -0.43300
N1194       N  0.54724454  0.91949295  0.22945890    -0.43700
N1195       N  0.57317801  0.79700557  0.16500622    -0.41100
N1196       N  0.66752524  0.00185927  0.19911528    -0.42500
H1197       H  0.67307333  0.93164702  0.22788345     0.13600
H1198       H  0.57223346  0.86772532  0.13563469     0.10100
H1199       H  0.62663782  0.94313832  0.08663901     0.11200
H1200       H  0.53168352  0.95389068  0.14475526     0.17000
C1201       C  0.62121188  0.71888186  0.30841651    -0.01200
C1202       C  0.59982575  0.71229945  0.34251174     0.07400
C1203       C  0.59295201  0.73765214  0.35491438    -0.07200
C1204       C  0.60550375  0.76836018  0.33292438     0.04800
C1205       C  0.62590346  0.77440072  0.29796832    -0.14400
C1206       C  0.63453436  0.74994919  0.28710883    -0.07700
C1207       C  0.58422403  0.67917067  0.36549688     0.05800
C1208       C  0.60602622  0.66891239  0.38158619    -0.08800
C1209       C  0.59240437  0.63779899  0.40306655     0.00800
C1210       C  0.55602987  0.61662478  0.41019274     0.00600
C1211       C  0.53432277  0.62716476  0.39403771    -0.12400
C1212       C  0.54796372  0.65776439  0.37156770     0.01100
C1213       C  0.61668746  0.62865711  0.41713213     0.40400
C1214       C  0.52405962  0.66604649  0.35397994     0.37000
C1215       C  0.62880539  0.69368544  0.29362312     0.36800
C1216       C  0.59569792  0.79224812  0.34628734     0.37500
N1217       N  0.63627806  0.62135643  0.42797277    -0.43300
N1218       N  0.50496708  0.67272611  0.33982857    -0.43700
N1219       N  0.58749290  0.81089743  0.35796867    -0.41100
N1220       N  0.63495757  0.67355243  0.28171179    -0.42500
H1221       H  0.65124691  0.75479803  0.26126349     0.13600
H1222       H  0.57716468  0.73313152  0.38160224     0.10100
H1223       H  0.63394955  0.68533885  0.37725093     0.11200
H1224       H  0.50638400  0.61122097  0.39843483     0.17000
C1225       C  0.76761725  0.91136158  0.34725646    -0.01200
C1226       C  0.79066017  0.89976913  0.34222363     0.07400
C1227       C  0.78097141  0.87086545  0.31766476    -0.07200
C1228       C  0.74956843  0.85488867  0.29617616     0.04800
C1229       C  0.72820517  0.86884680  0.29803068    -0.14400
C1230       C  0.73649361  0.89547305  0.32559385    -0.07700
C1231       C  0.82367671  0.91592927  0.36489190     0.05800
C1232       C  0.82544442  0.89877245  0.39898492    -0.08800
C1233       C  0.85539921  0.91395303  0.42284078     0.00800
C1234       C  0.88441226  0.94680602  0.41227389     0.00600
C1235       C  0.88252880  0.96404408  0.37814673    -0.12400
C1236       C  0.85241832  0.94881275  0.35437300     0.01100
C1237       C  0.85497267  0.89610087  0.45914311     0.40400
C1238       C  0.85153362  0.96723140  0.31933676     0.37000
C1239       C  0.77505025  0.93894581  0.37513638     0.36800
C1240       C  0.73826165  0.82241025  0.27609238     0.37500
N1241       N  0.85461242  0.88194449  0.48835715    -0.43300
N1242       N  0.85080391  0.98200379  0.29127936    -0.43700
N1243       N  0.72916776  0.79599332  0.26087545    -0.41100
N1244       N  0.78104140  0.96099019  0.39757680    -0.42500
H1245       H  0.71847477  0.90365020  0.33041281     0.13600
H1246       H  0.79767699  0.86049328  0.31586296     0.10100
H1247       H  0.80301433  0.87379741  0.40746283     0.11200
H1248       H  0.90472100  0.98921537  0.36980828     0.17000
C1249       C  0.57401852  0.87196086  0.30965765    -0.01200
C1250       C  0.59186861  0.90255161  0.33287768     0.07400
C1251       C  0.62823299  0.92073283  0.33506904    -0.07200
C1252       C  0.64706728  0.90937690  0.31403327     0.04800
C1253       C  0.62924391  0.87780018  0.29250595    -0.14400
C1254       C  0.59277199  0.85964637  0.29005790    -0.07700
C1255       C  0.57353012  0.91651471  0.35507596     0.05800
C1256       C  0.54998058  0.89642837  0.38568594    -0.08800
C1257       C  0.53486408  0.91006686  0.41014288     0.00800
C1258       C  0.54382576  0.94470252  0.40436270     0.00600
C1259       C  0.56677653  0.96443126  0.37308222    -0.12400
C1260       C  0.58136315  0.95056115  0.34826104     0.01100
C1261       C  0.51173581  0.88851280  0.44210669     0.40400
C1262       C  0.60419715  0.97170046  0.31589076     0.37000
C1263       C  0.53678469  0.85367559  0.30422952     0.36800
C1264       C  0.68420569  0.93286221  0.31199121     0.37500
N1265       N  0.99317312  0.87119142  0.46765220    -0.43300
N1266       N  0.62253660  0.98859343  0.28997393    -0.43700
N1267       N  0.71368961  0.95356084  0.31076814    -0.41100
N1268       N  0.50695658  0.83922153  0.29973426    -0.42500
H1269       H  0.57900157  0.83599888  0.27231828     0.13600
H1270       H  0.64205878  0.94463763  0.35235655     0.10100
H1271       H  0.54421179  0.87036928  0.39124478     0.11200
H1272       H  0.57332197  0.99080483  0.36795825     0.17000
C1273       C  0.94216966  0.59456754  0.86137528    -0.01200
C1274       C  0.90708010  0.58385174  0.86781365     0.07400
C1275       C  0.88717600  0.55735459  0.89568040    -0.07200
C1276       C  0.90195003  0.54211671  0.91793043     0.04800
C1277       C  0.93752453  0.55361595  0.91251273    -0.14400
C1278       C  0.95717208  0.57979420  0.88400288    -0.07700
C1279       C  0.89068837  0.59990047  0.84556567     0.05800
C1280       C  0.86362666  0.57958939  0.81836088    -0.08800
C1281       C  0.84883449  0.59430705  0.79522540     0.00800
C1282       C  0.86182038  0.63012745  0.79851549     0.00600
C1283       C  0.88728624  0.64989782  0.82754635    -0.12400
C1284       C  0.90171543  0.63508344  0.85110791     0.01100
C1285       C  0.81951890  0.57191519  0.76966429     0.40400
C1286       C  0.92749426  0.65631825  0.88106602     0.37000
C1287       C  0.96294732  0.61999199  0.83089353     0.36800
C1288       C  0.88022978  0.51571250  0.94707044     0.37500
N1289       N  0.79583449  0.55380011  0.74948378    -0.43300
N1290       N  0.94809244  0.67329121  0.90515990    -0.43700
N1291       N  0.86275660  0.49452336  0.97034917    -0.41100
N1292       N  0.97943082  0.64027994  0.80632856    -0.42500
H1293       H  0.98425626  0.58844167  0.87894623     0.13600
H1294       H  0.86010529  0.54891165  0.90045685     0.10100
H1295       H  0.85424177  0.55225060  0.81502184     0.11200
H1296       H  0.89652122  0.67719376  0.83108111     0.17000
C1297       C  0.92157870  0.79280326  0.81156316    -0.01200
C1298       C  0.90378514  0.79743047  0.84341618     0.07400
C1299       C  0.86989321  0.77067428  0.85295443    -0.07200
C1300       C  0.85322155  0.73967796  0.83089393     0.04800
C1301       C  0.87074008  0.73493689  0.79844873    -0.14400
C1302       C  0.90532060  0.76150375  0.79001416    -0.07700
C1303       C  0.91942036  0.83039237  0.86640882     0.05800
C1304       C  0.90589307  0.85160017  0.86107125    -0.08800
C1305       C  0.91921894  0.88260026  0.88274926     0.00800
C1306       C  0.94659582  0.89275109  0.91080701     0.00600
C1307       C  0.96025103  0.87145475  0.91573291    -0.12400
C1308       C  0.94680275  0.84044294  0.89401526     0.01100
C1309       C  0.90489949  0.90379949  0.87452559     0.40400
C1310       C  0.96074226  0.81880644  0.90140740     0.37000
C1311       C  0.95583294  0.82044046  0.79931115     0.36800
C1312       C  0.81782611  0.71417211  0.84190593     0.37500
N1313       N  0.89341855  0.92075741  0.86779302    -0.43300
N1314       N  0.97185656  0.80141237  0.90731995    -0.43700
N1315       N  0.78965105  0.69439412  0.85225841    -0.41100
N1316       N  0.98318422  0.84279096  0.78945885    -0.42500
H1317       H  0.91940676  0.75816972  0.76575001     0.13600
H1318       H  0.85619065  0.77431204  0.87746702     0.10100
H1319       H  0.88490986  0.84392508  0.83965681     0.11200
H1320       H  0.98101212  0.87862544  0.93728782     0.17000
C1321       C  0.72599600  0.59334375  0.84193813    -0.01200
C1322       C  0.70203051  0.60384098  0.83598472     0.07400
C1323       C  0.70954128  0.62967913  0.80741412    -0.07200
C1324       C  0.74020682  0.64481648  0.78459142     0.04800
C1325       C  0.76382465  0.63380507  0.79004361    -0.14400
C1326       C  0.75654873  0.60831003  0.81894113    -0.07700
C1327       C  0.66960734  0.58918625  0.86023444     0.05800
C1328       C  0.66561388  0.61108387  0.88651478    -0.08800
C1329       C  0.63578005  0.59826170  0.91060315     0.00800
C1330       C  0.60918825  0.56269145  0.90868945     0.00600
C1331       C  0.61313027  0.54097485  0.88181530    -0.12400
C1332       C  0.64276105  0.55397145  0.85739370     0.01100
C1333       C  0.63395272  0.62196178  0.93807735     0.40400
C1334       C  0.64471787  0.53094835  0.82891205     0.37000
C1335       C  0.72032208  0.56802771  0.87222844     0.36800
C1336       C  0.74786903  0.67308508  0.75782896     0.37500
N1337       N  0.63256852  0.64102440  0.96006384    -0.43300
N1338       N  0.64641928  0.51263227  0.80601127    -0.43700
N1339       N  0.75399636  0.69586316  0.73659917    -0.41100
N1340       N  0.71580255  0.54768293  0.89642644    -0.42500
H1341       H  0.77486430  0.60013485  0.82357911     0.13600
H1342       H  0.69154610  0.63831568  0.80331704     0.10100
H1343       H  0.68618435  0.63823578  0.88863378     0.11200
H1344       H  0.59277520  0.51376994  0.87949533     0.17000
C1345       C  0.92815201  0.56928436  0.65502854     0.02200
C1346       C  0.91174119  0.58510993  0.63723040     0.07400
C1347       C  0.91102729  0.58710705  0.59505159    -0.07200
C1348       C  0.92616227  0.57358296  0.57039248     0.04800
C1349       C  0.94308395  0.55788552  0.58804613    -0.14400
C1350       C  0.94365020  0.55597866  0.63052833    -0.07700
C1351       C  0.89599747  0.60070166  0.66187192     0.05800
C1352       C  0.91727680  0.62802327  0.68837154    -0.08800
C1353       C  0.90375723  0.64427006  0.71100456     0.00800
C1354       C  0.86841531  0.63344276  0.70683685     0.00600
C1355       C  0.84732912  0.60672773  0.67971112    -0.12400
C1356       C  0.86060562  0.58987038  0.65785639     0.01100
C1357       C  0.92703188  0.67307445  0.73668137     0.40400
C1358       C  0.83715025  0.56075137  0.63265690     0.37000
C1359       C  0.92873019  0.56571339  0.69834307     0.36800
C1360       C  0.92366512  0.57646246  0.52722783     0.37500
N1361       N  0.94577363  0.69622843  0.75713733    -0.43300
N1362       N  0.81830774  0.53729676  0.61263351    -0.43700
N1363       N  0.92146816  0.57877409  0.49268187    -0.41100
N1364       N  0.92915719  0.56291975  0.73305783    -0.42500
H1365       H  0.95605494  0.54384471  0.64488134     0.13600
H1366       H  0.89868783  0.59956571  0.58128345     0.10100
H1367       H  0.94465839  0.63698519  0.69093382     0.11200
H1368       H  0.82012587  0.59834251  0.67654758     0.17000
C1369       C  0.87226552  0.79109427  0.69376787    -0.01200
C1370       C  0.89498242  0.79844342  0.66099922     0.07400
C1371       C  0.90464478  0.77479000  0.65059136    -0.07200
C1372       C  0.89233571  0.74416722  0.67261965     0.04800
C1373       C  0.86983939  0.73684847  0.70587795    -0.14400
C1374       C  0.85961405  0.76034963  0.71555361    -0.07700
C1375       C  0.90933072  0.83084851  0.63736422     0.05800
C1376       C  0.93389438  0.86243821  0.65543674    -0.08800
C1377       C  0.94951823  0.89350444  0.63351407     0.00800
C1378       C  0.94008108  0.89326139  0.59264513     0.00600
C1379       C  0.91497099  0.86139292  0.57498868    -0.12400
C1380       C  0.89984305  0.83040150  0.59680371     0.01100
C1381       C  0.97623875  0.92466814  0.65335134     0.40400
C1382       C  0.87465002  0.79844087  0.57693409     0.37000
C1383       C  0.86100563  0.81434050  0.70498993     0.36800
C1384       C  0.90375294  0.72127246  0.66046776     0.37500
N1385       N  0.99777923  0.94953894  0.66931261    -0.43300
N1386       N  0.85458275  0.77283751  0.56093018    -0.43700
N1387       N  0.91303612  0.70324606  0.64970843    -0.41100
N1388       N  0.85198372  0.83297390  0.71401512    -0.42500
H1389       H  0.84134081  0.75448763  0.74000004     0.13600
H1390       H  0.92214993  0.78049072  0.62530544     0.10100
H1391       H  0.94150281  0.86263815  0.68655618     0.11200
H1392       H  0.90717584  0.86050756  0.54382077     0.17000
C1393       C  0.67304016  0.57209340  0.58636834    -0.01200
C1394       C  0.67498458  0.58086229  0.62748582     0.07400
C1395       C  0.64532730  0.57605121  0.64708931    -0.07200
C1396       C  0.61387748  0.56296354  0.62635306     0.04800
C1397       C  0.61177457  0.55459506  0.58472763    -0.14400
C1398       C  0.64170800  0.55921005  0.56537370    -0.07700
C1399       C  0.70806480  0.59683359  0.65033836     0.05800
C1400       C  0.73461112  0.63078842  0.64080810    -0.08800
C1401       C  0.76476102  0.64845067  0.66437887     0.00800
C1402       C  0.76883237  0.63178935  0.69806657     0.00600
C1403       C  0.74288090  0.59709344  0.70621281    -0.12400
C1404       C  0.71241303  0.57980698  0.68316833     0.01100
C1405       C  0.78961155  0.68423549  0.65447195     0.40400
C1406       C  0.68575930  0.54479176  0.69401742     0.37000
C1407       C  0.70265636  0.57541991  0.56541000     0.36800
C1408       C  0.58471320  0.55931800  0.64868182     0.37500
N1409       N  0.80868239  0.71286950  0.64542826    -0.43300
N1410       N  0.66427728  0.51678096  0.70278469    -0.43700
N1411       N  0.56140606  0.55636694  0.66677065    -0.41100
N1412       N  0.72635230  0.57793399  0.54870276    -0.42500
H1413       H  0.64068389  0.55250387  0.53373341     0.13600
H1414       H  0.64695938  0.58308157  0.67871975     0.10100
H1415       H  0.73109164  0.64400985  0.61575075     0.11200
H1416       H  0.74612091  0.58362749  0.73117558     0.17000
loop_ 
_geom_bond_atom_site_label_1 
_geom_bond_atom_site_label_2 
_geom_bond_distance 
_geom_bond_site_symmetry_2 
_ccdc_geom_bond_type 
C1            H2   1.110       .  S
C1            C7   1.534       .  S
C1            C6   1.532       .  S
C1            C5   1.541       .  S
C3            H4   1.110       .  S
C3            C9   1.538       .  S
C3            C8   1.537       .  S
C3           C10   1.530       .  S
C5            C8   1.382       .  D
C5          C311   1.491       .  S
C6            C9   1.376       .  D
C6          C340   1.490       .  S
C7           C10   1.371       .  D
C7          C292   1.481       .  S
C8          C239   1.498       .  S
C9          C263   1.483       .  S
C10         C220   1.483       .  S
C11          H12   1.110       .  S
C11          C17   1.540       .  S
C11          C16   1.539       .  S
C11          C15   1.532       .  S
C13          H14   1.111       .  S
C13          C19   1.543       .  S
C13          C18   1.540       .  S
C13          C20   1.534       .  S
C15          C18   1.373       .  D
C15         C167   1.486       .  S
C16          C19   1.383       .  D
C16         C143   1.492       .  S
C17          C20   1.369       .  D
C17         C191   1.481       .  S
C18          C95   1.484       .  S
C19          C71   1.497       .  S
C20         C119   1.489       .  S
O21          C37   1.275       .  A
O21        Zn735   2.025       .  S
C22          O38   1.275       .  A
C22          O35   1.276       .  A
C22         C268   1.487       .  S
O23          C36   1.275       .  A
O23       Cd1092   2.073   1_455  S
O24          C42   1.277       .  A
O24         Cd33   2.075   1_554  S
O25          C39   1.274       .  A
O25        Cd383   2.065   1_545  S
O26          C37   1.273       .  A
O26         Cd29   2.063       .  S
Zn27         O40   2.015   1_556  S
Zn27        O729   2.025   1_455  S
Zn27        O392   2.017       .  S
Zn27       O1094   1.942   1_456  S
O28          C39   1.276       .  A
O28        Cd741   2.078       .  S
Cd29         O31   2.058   1_556  S
Cd29        O379   2.064       .  S
Cd29        O386   1.993   1_556  S
Cd30       O1085   2.073   1_545  S
Cd30        O388   2.083   1_545  S
Cd30        O751   2.076       .  S
Cd30         O32   2.007       .  S
O31          C41   1.273       .  A
O32       Zn1089   1.942   1_544  S
O32        Cd383   1.993   1_544  S
O32        Cd741   2.002   1_554  S
Cd33         O35   2.079       .  S
Cd33        O736   2.078   1_455  S
Cd33        O740   2.002   1_456  S
O34          C41   1.277       .  A
O34        Cd384   2.083       .  S
C36          O40   1.274       .  A
C36         C124   1.488       .  S
C37         C244   1.487       .  S
O38        Zn381   2.017   1_545  S
C39         C215   1.485       .  S
C41         C100   1.494       .  S
C42          O43   1.276       .  A
C42          C76   1.490       .  S
O43        Cd738   2.076   1_455  S
O44          C60   1.276       .  A
O44        Zn758   2.022   1_455  S
C45          O61   1.275       .  A
C45          O58   1.271       .  A
C45         C172   1.474       .  S
O46          C59   1.277       .  A
O46         Cd53   2.075       .  S
O47          C65   1.272       .  A
O47         Cd56   2.047       .  S
O48          C62   1.274       .  A
O48        Cd406   2.062       .  S
O49          C60   1.273       .  A
O49         Cd52   2.066       .  S
Zn50         O63   2.011       .  S
Zn50        O752   2.022       .  S
Zn50        O415   2.025   1_545  S
Zn50         O55   1.940       .  S
O51          C62   1.271   1_655  A
O51        Cd764   2.048       .  S
Cd52         O54   2.065       .  S
Cd52        O402   2.062   1_545  S
Cd52        O763   1.993   1_455  S
Cd53        O765   2.075       .  S
Cd53        O420   2.080   1_545  S
Cd53         O55   2.000       .  S
O54          C64   1.275       .  A
O55        Cd760   1.993       .  S
O55        Cd410   1.986   1_545  S
Cd56         O58   2.043       .  S
Cd56        O759   2.048       .  S
Cd56        O409   1.986       .  S
O57          C64   1.276       .  A
O57        Cd761   2.075   1_455  S
C59          O63   1.274       .  A
C59         C287   1.494       .  S
C60         C148   1.493       .  S
O61        Zn404   2.025       .  S
C62         C196   1.475       .  S
C64         C335   1.491       .  S
C65          O66   1.275       .  A
C65         C316   1.488       .  S
O66        Cd407   2.080       .  S
C67          C68   1.408       .  A
C67          C72   1.397       .  A
C67          C81   1.444       .  S
C68          C73   1.483       .  S
C68          C69   1.401       .  A
C69          C70   1.403       .  A
C69          H88   1.085       .  S
C70          C71   1.418       .  A
C70          C82   1.444       .  S
C71          C72   1.403       .  A
C72          H87   1.080       .  S
C73          C74   1.401       .  A
C73          C78   1.408       .  A
C74          C75   1.402       .  A
C74          H89   1.085       .  S
C75          C76   1.418       .  A
C75          C79   1.444       .  S
C76          C77   1.408       .  A
C77          C78   1.401       .  A
C77          H90   1.084       .  S
C78          C80   1.444       .  S
C79          N83   1.157       .  T
C80          N84   1.157       .  T
C81          N86   1.157       .  T
C82          N85   1.157       .  T
C91          C92   1.411       .  A
C91          C96   1.399       .  A
C91         C105   1.444       .  S
C92          C97   1.485       .  S
C92          C93   1.404       .  A
C93          C94   1.400       .  A
C93         H112   1.085       .  S
C94          C95   1.409       .  A
C94         C106   1.441       .  S
C95          C96   1.401       .  A
C96         H111   1.081       .  S
C97          C98   1.400       .  A
C97         C102   1.409       .  A
C98          C99   1.399       .  A
C98         H113   1.085       .  S
C99         C100   1.421       .  A
C99         C103   1.445       .  S
C100        C101   1.409       .  A
C101        C102   1.402       .  A
C101        H114   1.084       .  S
C102        C104   1.444       .  S
C103        N107   1.157   1_554  T
C104        N108   1.157       .  T
C105        N110   1.157       .  T
C106        N109   1.156       .  T
C115        C116   1.407       .  A
C115        C120   1.401       .  A
C115        C129   1.443       .  S
C116        C121   1.478       .  S
C116        C117   1.399       .  A
C117        C118   1.399       .  A
C117        H136   1.085       .  S
C118        C119   1.412       .  A
C118        C130   1.440       .  S
C119        C120   1.407       .  A
C120        H135   1.083       .  S
C121        C122   1.399       .  A
C121        C126   1.407       .  A
C122        C123   1.400       .  A
C122        H137   1.085       .  S
C123        C124   1.418       .  A
C123        C127   1.445       .  S
C124        C125   1.409       .  A
C125        C126   1.401       .  A
C125        H138   1.084       .  S
C126        C128   1.445       .  S
C127        N131   1.157       .  T
C128        N132   1.157       .  T
C129        N134   1.157       .  T
C130        N133   1.156       .  T
C139        C140   1.411       .  A
C139        C144   1.398       .  A
C139        C153   1.444       .  S
C140        C145   1.490       .  S
C140        C141   1.404       .  A
C141        C142   1.400       .  A
C141        H160   1.085       .  S
C142        C143   1.413       .  A
C142        C154   1.442       .  S
C143        C144   1.406       .  A
C144        H159   1.084       .  S
C145        C146   1.402       .  A
C145        C150   1.411       .  A
C146        C147   1.401       .  A
C146        H161   1.085       .  S
C147        C148   1.420       .  A
C147        C151   1.444       .  S
C148        C149   1.408       .  A
C149        C150   1.400       .  A
C149        H162   1.084       .  S
C150        C152   1.445       .  S
C151        N155   1.157       .  T
C152        N156   1.157       .  T
C153        N158   1.157       .  T
C154        N157   1.157       .  T
C163        C164   1.406       .  A
C163        C168   1.395       .  A
C163        C177   1.444       .  S
C164        C169   1.475       .  S
C164        C165   1.402       .  A
C165        C166   1.401       .  A
C165        H184   1.085       .  S
C166        C167   1.412       .  A
C166        C178   1.442       .  S
C167        C168   1.398       .  A
C168        H183   1.073       .  S
C169        C170   1.399       .  A
C169        C174   1.410       .  A
C170        C171   1.396       .  A
C170        H185   1.085       .  S
C171        C172   1.414       .  A
C171        C175   1.445       .  S
C172        C173   1.404       .  A
C173        C174   1.400       .  A
C173        H186   1.085       .  S
C174        C176   1.444       .  S
C175        N179   1.157       .  T
C176        N180   1.157       .  T
C177        N182   1.157       .  T
C178        N181   1.157       .  T
C187        C188   1.409       .  A
C187        C192   1.399       .  A
C187        C201   1.443       .  S
C188        C193   1.479       .  S
C188        C189   1.400       .  A
C189        C190   1.394       .  A
C189        H208   1.085       .  S
C190        C191   1.411       .  A
C190        C202   1.439       .  S
C191        C192   1.404       .  A
C192        H207   1.085       .  S
C193        C194   1.402       .  A
C193        C198   1.411       .  A
C194        C195   1.398       .  A
C194        H209   1.085       .  S
C195        C196   1.415       .  A
C195        C199   1.445       .  S
C196        C197   1.403       .  A
C197        C198   1.395       .  A
C197        H210   1.085       .  S
C198        C200   1.445       .  S
C199        N911   1.158   1_455  T
C200        N204   1.157       .  T
C201        N206   1.157       .  T
C202        N205   1.157       .  T
N203        C907   1.158       .  T
C211        C212   1.410       .  A
C211        C216   1.400       .  A
C211        C225   1.444       .  S
C212        C217   1.484       .  S
C212        C213   1.401       .  A
C213        C214   1.401       .  A
C213        H232   1.085       .  S
C214        C215   1.417       .  A
C214        C226   1.445       .  S
C215        C216   1.406       .  A
C216        H231   1.085       .  S
C217        C218   1.403       .  A
C217        C222   1.412       .  A
C218        C219   1.400       .  A
C218        H233   1.085       .  S
C219        C220   1.412       .  A
C219        C223   1.443       .  S
C220        C221   1.401       .  A
C221        C222   1.399       .  A
C221        H234   1.085       .  S
C222        C224   1.444       .  S
C223        N227   1.157       .  T
C224        N228   1.157       .  T
C225        N230   1.157       .  T
C226        N229   1.158   1_545  T
C235        C236   1.408       .  A
C235        C240   1.401       .  A
C235        C249   1.444       .  S
C236        C241   1.483       .  S
C236        C237   1.399       .  A
C237        C238   1.400       .  A
C237        H256   1.085       .  S
C238        C239   1.417       .  A
C238        C250   1.441       .  S
C239        C240   1.409       .  A
C240        H255   1.084       .  S
C241        C242   1.401       .  A
C241        C246   1.408       .  A
C242        C243   1.400       .  A
C242        H257   1.085       .  S
C243        C244   1.417       .  A
C243        C247   1.444       .  S
C244        C245   1.408       .  A
C245        C246   1.401       .  A
C245        H258   1.084       .  S
C246        C248   1.444       .  S
C247        N251   1.157       .  T
C248        N252   1.157       .  T
C249        N254   1.157       .  T
C250        N253   1.157       .  T
C259        C260   1.412       .  A
C259        C264   1.399       .  A
C259        C273   1.444       .  S
C260        C265   1.485       .  S
C260        C261   1.403       .  A
C261        C262   1.400       .  A
C261        H280   1.085       .  S
C262        C263   1.413       .  A
C262        C274   1.444       .  S
C263        C264   1.401       .  A
C264        H279   1.085       .  S
C265        C266   1.403       .  A
C265        C270   1.409       .  A
C266        C267   1.402       .  A
C266        H281   1.085       .  S
C267        C268   1.416       .  A
C267        C271   1.444       .  S
C268        C269   1.407       .  A
C269        C270   1.401       .  A
C269        H282   1.085       .  S
C270        C272   1.444       .  S
C271        N275   1.157       .  T
C272        N276   1.157       .  T
C273        N278   1.157       .  T
C274        N277   1.157       .  T
C283        C284   1.409       .  A
C283        C288   1.401       .  A
C283        C297   1.445       .  S
C284        C289   1.486       .  S
C284        C285   1.401       .  A
C285        C286   1.399       .  A
C285        H304   1.085       .  S
C286        C287   1.421       .  A
C286        C298   1.445       .  S
C287        C288   1.410       .  A
C288        H303   1.084       .  S
C289        C290   1.404       .  A
C289        C294   1.412       .  A
C290        C291   1.399       .  A
C290        H305   1.085       .  S
C291        C292   1.411       .  A
C291        C295   1.444       .  S
C292        C293   1.401       .  A
C293        C294   1.399       .  A
C293        H306   1.085       .  S
C294        C296   1.444       .  S
C295        N299   1.157       .  T
C296        N300   1.157       .  T
C297        N302   1.157       .  T
C298        N301   1.158       .  T
C307        C308   1.407       .  A
C307        C312   1.398       .  A
C307        C321   1.443       .  S
C308        C313   1.480       .  S
C308        C309   1.401       .  A
C309        C310   1.399       .  A
C309        H328   1.085       .  S
C310        C311   1.414       .  A
C310        C322   1.442       .  S
C311        C312   1.407       .  A
C312        H327   1.084       .  S
C313        C314   1.401       .  A
C313        C318   1.407       .  A
C314        C315   1.401       .  A
C314        H329   1.085       .  S
C315        C316   1.417       .  A
C315        C319   1.444       .  S
C316        C317   1.409       .  A
C317        C318   1.397       .  A
C317        H330   1.085       .  S
C318        C320   1.445       .  S
C319        N323   1.157       .  T
C320        N324   1.157       .  T
C321        N326   1.157       .  T
C322        N325   1.157       .  T
C331        C332   1.407       .  A
C331        C336   1.400       .  A
C331        C345   1.444       .  S
C332        C337   1.481       .  S
C332        C333   1.400       .  A
C333        C334   1.399       .  A
C333        H352   1.085       .  S
C334        C335   1.418       .  A
C334        C346   1.444       .  S
C335        C336   1.410       .  A
C336        H351   1.084       .  S
C337        C338   1.400       .  A
C337        C342   1.408       .  A
C338        C339   1.399       .  A
C338        H353   1.085       .  S
C339        C340   1.415       .  A
C339        C343   1.442       .  S
C340        C341   1.406       .  A
C341        C342   1.399       .  A
C341        H354   1.084       .  S
C342        C344   1.443       .  S
C343        N347   1.157       .  T
C344        N348   1.157       .  T
C345        N350   1.157       .  T
C346        N349   1.157       .  T
C355        H356   1.110       .  S
C355        C361   1.534       .  S
C355        C360   1.532       .  S
C355        C359   1.541       .  S
C357        H358   1.110       .  S
C357        C363   1.538       .  S
C357        C362   1.537       .  S
C357        C364   1.530       .  S
C359        C362   1.382       .  D
C359        C665   1.491       .  S
C360        C363   1.376       .  D
C360        C694   1.490       .  S
C361        C364   1.371       .  D
C361        C646   1.481       .  S
C362        C593   1.498       .  S
C363        C617   1.483       .  S
C364        C574   1.483       .  S
C365        H366   1.110       .  S
C365        C371   1.540       .  S
C365        C370   1.539       .  S
C365        C369   1.532       .  S
C367        H368   1.111       .  S
C367        C373   1.543       .  S
C367        C372   1.540       .  S
C367        C374   1.534       .  S
C369        C372   1.373       .  D
C369        C521   1.486       .  S
C370        C373   1.383       .  D
C370        C497   1.492       .  S
C371        C374   1.369       .  D
C371        C545   1.481       .  S
C372        C449   1.484       .  S
C373        C425   1.497       .  S
C374        C473   1.489       .  S
O375        C391   1.275       .  A
O375      Zn1089   2.025       .  S
C376        O392   1.275       .  A
C376        O389   1.276       .  A
C376        C622   1.487       .  S
O377        C390   1.275       .  A
O377       Cd738   2.073   1_465  S
O378        C396   1.277       .  A
O378       Cd387   2.075   1_554  S
O379        C393   1.274       .  A
O380        C391   1.273       .  A
O380       Cd383   2.063       .  S
Zn381      O1083   2.025   1_455  S
Zn381       O394   2.015   1_556  S
Zn381       O740   1.942   1_466  S
O382        C393   1.276       .  A
O382      Cd1095   2.078       .  S
Cd383       O385   2.058   1_556  S
Cd384       O731   2.073       .  S
Cd384      O1105   2.076       .  S
Cd384       O386   2.007       .  S
O385        C395   1.273       .  A
O386       Zn735   1.942   1_554  S
O386      Cd1095   2.002   1_554  S
Cd387      O1090   2.078   1_455  S
Cd387       O389   2.079       .  S
Cd387      O1094   2.002   1_456  S
O388        C395   1.277       .  A
C390        O394   1.274       .  A
C390        C478   1.488       .  S
C391        C598   1.487       .  S
C393        C569   1.485       .  S
C395        C454   1.494       .  S
C396        O397   1.276       .  A
C396        C430   1.490       .  S
O397      Cd1092   2.076   1_455  S
O398        C414   1.276       .  A
O398      Zn1112   2.022   1_455  S
C399        O415   1.275       .  A
C399        O412   1.271       .  A
C399        C526   1.474       .  S
O400        C413   1.277       .  A
O400       Cd407   2.075       .  S
O401        C419   1.272       .  A
O401       Cd410   2.047       .  S
O402        C416   1.274       .  A
O403        C414   1.273       .  A
O403       Cd406   2.066       .  S
Zn404      O1106   2.022       .  S
Zn404       O417   2.011       .  S
Zn404       O409   1.940       .  S
O405        C416   1.271   1_655  A
O405      Cd1118   2.048       .  S
Cd406       O408   2.065       .  S
Cd406      O1117   1.993   1_455  S
Cd407      O1119   2.075       .  S
Cd407       O409   2.000       .  S
O408        C418   1.275       .  A
O409      Cd1114   1.993       .  S
Cd410      O1113   2.048       .  S
Cd410       O412   2.043       .  S
O411        C418   1.276       .  A
O411      Cd1115   2.075   1_455  S
C413        O417   1.274       .  A
C413        C641   1.494       .  S
C414        C502   1.493       .  S
C416        C550   1.475       .  S
C418        C689   1.491       .  S
C419        O420   1.275       .  A
C419        C670   1.488       .  S
C421        C422   1.408       .  A
C421        C426   1.397       .  A
C421        C435   1.444       .  S
C422        C427   1.483       .  S
C422        C423   1.401       .  A
C423        C424   1.403       .  A
C423        H442   1.085       .  S
C424        C425   1.418       .  A
C424        C436   1.444       .  S
C425        C426   1.403       .  A
C426        H441   1.080       .  S
C427        C428   1.401       .  A
C427        C432   1.408       .  A
C428        C429   1.402       .  A
C428        H443   1.085       .  S
C429        C430   1.418       .  A
C429        C433   1.444       .  S
C430        C431   1.408       .  A
C431        C432   1.401       .  A
C431        H444   1.084       .  S
C432        C434   1.444       .  S
C433        N437   1.157       .  T
C434        N438   1.157       .  T
C435        N440   1.157       .  T
C436        N439   1.157       .  T
C445        C446   1.411       .  A
C445        C450   1.399       .  A
C445        C459   1.444       .  S
C446        C451   1.485       .  S
C446        C447   1.404       .  A
C447        C448   1.400       .  A
C447        H466   1.085       .  S
C448        C449   1.409       .  A
C448        C460   1.441       .  S
C449        C450   1.401       .  A
C450        H465   1.081       .  S
C451        C452   1.400       .  A
C451        C456   1.409       .  A
C452        C453   1.399       .  A
C452        H467   1.085       .  S
C453        C454   1.421       .  A
C453        C457   1.445       .  S
C454        C455   1.409       .  A
C455        C456   1.402       .  A
C455        H468   1.084       .  S
C456        C458   1.444       .  S
C457        N461   1.157   1_554  T
C458        N462   1.157       .  T
C459        N464   1.157       .  T
C460        N463   1.156       .  T
C469        C470   1.407       .  A
C469        C474   1.401       .  A
C469        C483   1.443       .  S
C470        C475   1.478       .  S
C470        C471   1.399       .  A
C471        C472   1.399       .  A
C471        H490   1.085       .  S
C472        C473   1.412       .  A
C472        C484   1.440       .  S
C473        C474   1.407       .  A
C474        H489   1.083       .  S
C475        C476   1.399       .  A
C475        C480   1.407       .  A
C476        C477   1.400       .  A
C476        H491   1.085       .  S
C477        C478   1.418       .  A
C477        C481   1.445       .  S
C478        C479   1.409       .  A
C479        C480   1.401       .  A
C479        H492   1.084       .  S
C480        C482   1.445       .  S
C481        N485   1.157       .  T
C482        N486   1.157       .  T
C483        N488   1.157   1_565  T
C484        N487   1.156       .  T
C493        C494   1.411       .  A
C493        C498   1.398       .  A
C493        C507   1.444       .  S
C494        C499   1.490       .  S
C494        C495   1.404       .  A
C495        C496   1.400       .  A
C495        H514   1.085       .  S
C496        C497   1.413       .  A
C496        C508   1.442       .  S
C497        C498   1.406       .  A
C498        H513   1.084       .  S
C499        C500   1.402       .  A
C499        C504   1.411       .  A
C500        C501   1.401       .  A
C500        H515   1.085       .  S
C501        C502   1.420       .  A
C501        C505   1.444       .  S
C502        C503   1.408       .  A
C503        C504   1.400       .  A
C503        H516   1.084       .  S
C504        C506   1.445       .  S
C505        N509   1.157       .  T
C506        N510   1.157       .  T
C507        N512   1.157       .  T
C508        N511   1.157       .  T
C517        C518   1.406       .  A
C517        C522   1.395       .  A
C517        C531   1.444       .  S
C518        C523   1.475       .  S
C518        C519   1.402       .  A
C519        C520   1.401       .  A
C519        H538   1.085       .  S
C520        C521   1.412       .  A
C520        C532   1.442       .  S
C521        C522   1.398       .  A
C522        H537   1.073       .  S
C523        C524   1.399       .  A
C523        C528   1.410       .  A
C524        C525   1.396       .  A
C524        H539   1.085       .  S
C525        C526   1.414       .  A
C525        C529   1.445       .  S
C526        C527   1.404       .  A
C527        C528   1.400       .  A
C527        H540   1.085       .  S
C528        C530   1.444       .  S
C529        N533   1.157       .  T
C530        N534   1.157       .  T
C531        N536   1.157       .  T
C532        N535   1.157       .  T
C541        C542   1.409       .  A
C541        C546   1.399       .  A
C541        C555   1.443       .  S
C542        C547   1.479       .  S
C542        C543   1.400       .  A
C543        C544   1.394       .  A
C543        H562   1.085       .  S
C544        C545   1.411       .  A
C544        C556   1.439       .  S
C545        C546   1.404       .  A
C546        H561   1.085       .  S
C547        C548   1.402       .  A
C547        C552   1.411       .  A
C548        C549   1.398       .  A
C548        H563   1.085       .  S
C549        C550   1.415       .  A
C549        C553   1.445       .  S
C550        C551   1.403       .  A
C551        C552   1.395       .  A
C551        H564   1.085       .  S
C552        C554   1.445       .  S
C553       N1265   1.158   1_455  T
C554        N558   1.157       .  T
C555        N560   1.157       .  T
C556        N559   1.157       .  T
N557       C1261   1.158       .  T
C565        C566   1.410       .  A
C565        C570   1.400       .  A
C565        C579   1.444       .  S
C566        C571   1.484       .  S
C566        C567   1.401       .  A
C567        C568   1.401       .  A
C567        H586   1.085       .  S
C568        C569   1.417       .  A
C568        C580   1.445       .  S
C569        C570   1.406       .  A
C570        H585   1.085       .  S
C571        C572   1.403       .  A
C571        C576   1.412       .  A
C572        C573   1.400       .  A
C572        H587   1.085       .  S
C573        C574   1.412       .  A
C573        C577   1.443       .  S
C574        C575   1.401       .  A
C575        C576   1.399       .  A
C575        H588   1.085       .  S
C576        C578   1.444       .  S
C577        N581   1.157       .  T
C578        N582   1.157       .  T
C579        N584   1.157       .  T
C580        N583   1.158       .  T
C589        C590   1.408       .  A
C589        C594   1.401       .  A
C589        C603   1.444       .  S
C590        C595   1.483       .  S
C590        C591   1.399       .  A
C591        C592   1.400       .  A
C591        H610   1.085       .  S
C592        C593   1.417       .  A
C592        C604   1.441       .  S
C593        C594   1.409       .  A
C594        H609   1.084       .  S
C595        C596   1.401       .  A
C595        C600   1.408       .  A
C596        C597   1.400       .  A
C596        H611   1.085       .  S
C597        C598   1.417       .  A
C597        C601   1.444       .  S
C598        C599   1.408       .  A
C599        C600   1.401       .  A
C599        H612   1.084       .  S
C600        C602   1.444       .  S
C601        N605   1.157       .  T
C602        N606   1.157       .  T
C603        N608   1.157       .  T
C604        N607   1.157       .  T
C613        C614   1.412       .  A
C613        C618   1.399       .  A
C613        C627   1.444       .  S
C614        C619   1.485       .  S
C614        C615   1.403       .  A
C615        C616   1.400       .  A
C615        H634   1.085       .  S
C616        C617   1.413       .  A
C616        C628   1.444       .  S
C617        C618   1.401       .  A
C618        H633   1.085       .  S
C619        C620   1.403       .  A
C619        C624   1.409       .  A
C620        C621   1.402       .  A
C620        H635   1.085       .  S
C621        C622   1.416       .  A
C621        C625   1.444       .  S
C622        C623   1.407       .  A
C623        C624   1.401       .  A
C623        H636   1.085       .  S
C624        C626   1.444       .  S
C625        N629   1.157       .  T
C626        N630   1.157       .  T
C627        N632   1.157       .  T
C628        N631   1.157       .  T
C637        C638   1.409       .  A
C637        C642   1.401       .  A
C637        C651   1.445       .  S
C638        C643   1.486       .  S
C638        C639   1.401       .  A
C639        C640   1.399       .  A
C639        H658   1.085       .  S
C640        C641   1.421       .  A
C640        C652   1.445       .  S
C641        C642   1.410       .  A
C642        H657   1.084       .  S
C643        C644   1.404       .  A
C643        C648   1.412       .  A
C644        C645   1.399       .  A
C644        H659   1.085       .  S
C645        C646   1.411       .  A
C645        C649   1.444       .  S
C646        C647   1.401       .  A
C647        C648   1.399       .  A
C647        H660   1.085       .  S
C648        C650   1.444       .  S
C649        N653   1.157       .  T
C650        N654   1.157       .  T
C651        N656   1.157       .  T
C652        N655   1.158       .  T
C661        C662   1.407       .  A
C661        C666   1.398       .  A
C661        C675   1.443       .  S
C662        C667   1.480       .  S
C662        C663   1.401       .  A
C663        C664   1.399       .  A
C663        H682   1.085       .  S
C664        C665   1.414       .  A
C664        C676   1.442       .  S
C665        C666   1.407       .  A
C666        H681   1.084       .  S
C667        C668   1.401       .  A
C667        C672   1.407       .  A
C668        C669   1.401       .  A
C668        H683   1.085       .  S
C669        C670   1.417       .  A
C669        C673   1.444       .  S
C670        C671   1.409       .  A
C671        C672   1.397       .  A
C671        H684   1.085       .  S
C672        C674   1.445       .  S
C673        N677   1.157       .  T
C674        N678   1.157       .  T
C675        N680   1.157       .  T
C676        N679   1.157       .  T
C685        C686   1.407       .  A
C685        C690   1.400       .  A
C685        C699   1.444       .  S
C686        C691   1.481       .  S
C686        C687   1.400       .  A
C687        C688   1.399       .  A
C687        H706   1.085       .  S
C688        C689   1.418       .  A
C688        C700   1.444       .  S
C689        C690   1.410       .  A
C690        H705   1.084       .  S
C691        C692   1.400       .  A
C691        C696   1.408       .  A
C692        C693   1.399       .  A
C692        H707   1.085       .  S
C693        C694   1.415       .  A
C693        C697   1.442       .  S
C694        C695   1.406       .  A
C695        C696   1.399       .  A
C695        H708   1.084       .  S
C696        C698   1.443       .  S
C697        N701   1.157       .  T
C698        N702   1.157       .  T
C699        N704   1.157       .  T
C700        N703   1.157       .  T
C709        H710   1.110       .  S
C709        C715   1.534       .  S
C709        C714   1.532       .  S
C709        C713   1.541       .  S
C711        H712   1.110       .  S
C711        C717   1.538       .  S
C711        C716   1.537       .  S
C711        C718   1.530       .  S
C713        C716   1.382       .  D
C713       C1019   1.491       .  S
C714        C717   1.376       .  D
C714       C1048   1.490       .  S
C715        C718   1.371       .  D
C715       C1000   1.481       .  S
C716        C947   1.498       .  S
C717        C971   1.483       .  S
C718        C928   1.483       .  S
C719        H720   1.110       .  S
C719        C725   1.540       .  S
C719        C724   1.539       .  S
C719        C723   1.532       .  S
C721        H722   1.111       .  S
C721        C727   1.543       .  S
C721        C726   1.540       .  S
C721        C728   1.534       .  S
C723        C726   1.373       .  D
C723        C875   1.486       .  S
C724        C727   1.383       .  D
C724        C851   1.492       .  S
C725        C728   1.369       .  D
C725        C899   1.481       .  S
C726        C803   1.484       .  S
C727        C779   1.497       .  S
C728        C827   1.489       .  S
O729        C745   1.275       .  A
C730        O746   1.275       .  A
C730        O743   1.276       .  A
C730        C976   1.487       .  S
O731        C744   1.275       .  A
O732        C750   1.277       .  A
O732       Cd741   2.075   1_554  S
O733        C747   1.274       .  A
O733      Cd1091   2.065   1_545  S
O734        C745   1.273       .  A
O734       Cd737   2.063       .  S
Zn735      O1100   2.017       .  S
Zn735       O748   2.015   1_556  S
O736        C747   1.276       .  A
Cd737      O1087   2.064       .  S
Cd737       O739   2.058   1_556  S
Cd737      O1094   1.993   1_556  S
Cd738      O1096   2.083   1_545  S
Cd738       O740   2.007       .  S
O739        C749   1.273       .  A
O740      Cd1091   1.993   1_544  S
Cd741       O743   2.079       .  S
O742        C749   1.277       .  A
O742      Cd1092   2.083       .  S
C744        O748   1.274       .  A
C744        C832   1.488       .  S
C745        C952   1.487       .  S
O746      Zn1089   2.017   1_545  S
C747        C923   1.485       .  S
C749        C808   1.494       .  S
C750        O751   1.276       .  A
C750        C784   1.490       .  S
O752        C768   1.276       .  A
C753        O769   1.275       .  A
C753        O766   1.271       .  A
C753        C880   1.474       .  S
O754        C767   1.277       .  A
O754       Cd761   2.075       .  S
O755        C773   1.272       .  A
O755       Cd764   2.047       .  S
O756        C770   1.274       .  A
O756      Cd1114   2.062       .  S
O757        C768   1.273       .  A
O757       Cd760   2.066       .  S
Zn758      O1123   2.025   1_545  S
Zn758       O771   2.011       .  S
Zn758       O763   1.940       .  S
O759        C770   1.271       .  A
Cd760      O1110   2.062   1_545  S
Cd760       O762   2.065       .  S
Cd761      O1128   2.080   1_545  S
Cd761       O763   2.000       .  S
O762        C772   1.275       .  A
O763      Cd1118   1.986   1_545  S
Cd764       O766   2.043       .  S
Cd764      O1117   1.986       .  S
O765        C772   1.276       .  A
C767        O771   1.274       .  A
C767        C995   1.494       .  S
C768        C856   1.493       .  S
O769      Zn1112   2.025       .  S
C770        C904   1.475       .  S
C772       C1043   1.491       .  S
C773        O774   1.275       .  A
C773       C1024   1.488       .  S
O774      Cd1115   2.080       .  S
C775        C776   1.408       .  A
C775        C780   1.397       .  A
C775        C789   1.444       .  S
C776        C781   1.483       .  S
C776        C777   1.401       .  A
C777        C778   1.403       .  A
C777        H796   1.085       .  S
C778        C779   1.418       .  A
C778        C790   1.444       .  S
C779        C780   1.403       .  A
C780        H795   1.080       .  S
C781        C782   1.401       .  A
C781        C786   1.408       .  A
C782        C783   1.402       .  A
C782        H797   1.085       .  S
C783        C784   1.418       .  A
C783        C787   1.444       .  S
C784        C785   1.408       .  A
C785        C786   1.401       .  A
C785        H798   1.084       .  S
C786        C788   1.444       .  S
C787        N791   1.157       .  T
C788        N792   1.157       .  T
C789        N794   1.157       .  T
C790        N793   1.157       .  T
C799        C800   1.411       .  A
C799        C804   1.399       .  A
C799        C813   1.444       .  S
C800        C805   1.485       .  S
C800        C801   1.404       .  A
C801        C802   1.400       .  A
C801        H820   1.085       .  S
C802        C803   1.409       .  A
C802        C814   1.441       .  S
C803        C804   1.401       .  A
C804        H819   1.081       .  S
C805        C806   1.400       .  A
C805        C810   1.409       .  A
C806        C807   1.399       .  A
C806        H821   1.085       .  S
C807        C808   1.421       .  A
C807        C811   1.445       .  S
C808        C809   1.409       .  A
C809        C810   1.402       .  A
C809        H822   1.084       .  S
C810        C812   1.444       .  S
C811        N815   1.157   1_554  T
C812        N816   1.157       .  T
C813        N818   1.157       .  T
C814        N817   1.156       .  T
C823        C824   1.407       .  A
C823        C828   1.401       .  A
C823        C837   1.443       .  S
C824        C829   1.478       .  S
C824        C825   1.399       .  A
C825        C826   1.399       .  A
C825        H844   1.085       .  S
C826        C827   1.412       .  A
C826        C838   1.440       .  S
C827        C828   1.407       .  A
C828        H843   1.083       .  S
C829        C830   1.399       .  A
C829        C834   1.407       .  A
C830        C831   1.400       .  A
C830        H845   1.085       .  S
C831        C832   1.418       .  A
C831        C835   1.445       .  S
C832        C833   1.409       .  A
C833        C834   1.401       .  A
C833        H846   1.084       .  S
C834        C836   1.445       .  S
C835        N839   1.157       .  T
C836        N840   1.157       .  T
C837        N842   1.157       .  T
C838        N841   1.156       .  T
C847        C848   1.411       .  A
C847        C852   1.398       .  A
C847        C861   1.444       .  S
C848        C853   1.490       .  S
C848        C849   1.404       .  A
C849        C850   1.400       .  A
C849        H868   1.085       .  S
C850        C851   1.413       .  A
C850        C862   1.442       .  S
C851        C852   1.406       .  A
C852        H867   1.084       .  S
C853        C854   1.402       .  A
C853        C858   1.411       .  A
C854        C855   1.401       .  A
C854        H869   1.085       .  S
C855        C856   1.420       .  A
C855        C859   1.444       .  S
C856        C857   1.408       .  A
C857        C858   1.400       .  A
C857        H870   1.084       .  S
C858        C860   1.445       .  S
C859        N863   1.157       .  T
C860        N864   1.157       .  T
C861        N866   1.157       .  T
C862        N865   1.157       .  T
C871        C872   1.406       .  A
C871        C876   1.395       .  A
C871        C885   1.444       .  S
C872        C877   1.475       .  S
C872        C873   1.402       .  A
C873        C874   1.401       .  A
C873        H892   1.085       .  S
C874        C875   1.412       .  A
C874        C886   1.442       .  S
C875        C876   1.398       .  A
C876        H891   1.073       .  S
C877        C878   1.399       .  A
C877        C882   1.410       .  A
C878        C879   1.396       .  A
C878        H893   1.085       .  S
C879        C880   1.414       .  A
C879        C883   1.445       .  S
C880        C881   1.404       .  A
C881        C882   1.400       .  A
C881        H894   1.085       .  S
C882        C884   1.444       .  S
C883        N887   1.157       .  T
C884        N888   1.157       .  T
C885        N890   1.157       .  T
C886        N889   1.157       .  T
C895        C896   1.409       .  A
C895        C900   1.399       .  A
C895        C909   1.443       .  S
C896        C901   1.479       .  S
C896        C897   1.400       .  A
C897        C898   1.394       .  A
C897        H916   1.085       .  S
C898        C899   1.411       .  A
C898        C910   1.439       .  S
C899        C900   1.404       .  A
C900        H915   1.085       .  S
C901        C902   1.402       .  A
C901        C906   1.411       .  A
C902        C903   1.398       .  A
C902        H917   1.085       .  S
C903        C904   1.415       .  A
C903        C907   1.445       .  S
C904        C905   1.403       .  A
C905        C906   1.395       .  A
C905        H918   1.085       .  S
C906        C908   1.445       .  S
C908        N912   1.157       .  T
C909        N914   1.157       .  T
C910        N913   1.157       .  T
C919        C920   1.410       .  A
C919        C924   1.400       .  A
C919        C933   1.444       .  S
C920        C925   1.484       .  S
C920        C921   1.401       .  A
C921        C922   1.401       .  A
C921        H940   1.085       .  S
C922        C923   1.417       .  A
C922        C934   1.445       .  S
C923        C924   1.406       .  A
C924        H939   1.085       .  S
C925        C926   1.403       .  A
C925        C930   1.412       .  A
C926        C927   1.400       .  A
C926        H941   1.085       .  S
C927        C928   1.412       .  A
C927        C931   1.443       .  S
C928        C929   1.401       .  A
C929        C930   1.399       .  A
C929        H942   1.085       .  S
C930        C932   1.444       .  S
C931        N935   1.157       .  T
C932        N936   1.157       .  T
C933        N938   1.157       .  T
C934        N937   1.158   1_545  T
C943        C944   1.408       .  A
C943        C948   1.401       .  A
C943        C957   1.444       .  S
C944        C949   1.483       .  S
C944        C945   1.399       .  A
C945        C946   1.400       .  A
C945        H964   1.085       .  S
C946        C947   1.417       .  A
C946        C958   1.441       .  S
C947        C948   1.409       .  A
C948        H963   1.084       .  S
C949        C950   1.401       .  A
C949        C954   1.408       .  A
C950        C951   1.400       .  A
C950        H965   1.085       .  S
C951        C952   1.417       .  A
C951        C955   1.445       .  S
C952        C953   1.408       .  A
C953        C954   1.401       .  A
C953        H966   1.084       .  S
C954        C956   1.444       .  S
C955        N959   1.157       .  T
C956        N960   1.157       .  T
C957        N962   1.157       .  T
C958        N961   1.157       .  T
C967        C968   1.412       .  A
C967        C972   1.399       .  A
C967        C981   1.444       .  S
C968        C973   1.485       .  S
C968        C969   1.403       .  A
C969        C970   1.400       .  A
C969        H988   1.085       .  S
C970        C971   1.413       .  A
C970        C982   1.444       .  S
C971        C972   1.401       .  A
C972        H987   1.085       .  S
C973        C974   1.403       .  A
C973        C978   1.409       .  A
C974        C975   1.402       .  A
C974        H989   1.085       .  S
C975        C976   1.416       .  A
C975        C979   1.444       .  S
C976        C977   1.407       .  A
C977        C978   1.401       .  A
C977        H990   1.085       .  S
C978        C980   1.444       .  S
C979        N983   1.157       .  T
C980        N984   1.157       .  T
C981        N986   1.157       .  T
C982        N985   1.157       .  T
C991        C992   1.409       .  A
C991        C996   1.401       .  A
C991       C1005   1.445       .  S
C992        C997   1.486       .  S
C992        C993   1.401       .  A
C993        C994   1.399       .  A
C993       H1012   1.085       .  S
C994        C995   1.421       .  A
C994       C1006   1.445       .  S
C995        C996   1.410       .  A
C996       H1011   1.084       .  S
C997        C998   1.404       .  A
C997       C1002   1.412       .  A
C998        C999   1.399       .  A
C998       H1013   1.085       .  S
C999       C1000   1.411       .  A
C999       C1003   1.444       .  S
C1000      C1001   1.401       .  A
C1001      C1002   1.399       .  A
C1001      H1014   1.085       .  S
C1002      C1004   1.444       .  S
C1003      N1007   1.157       .  T
C1004      N1008   1.157       .  T
C1005      N1010   1.157       .  T
C1006      N1009   1.158       .  T
C1015      C1016   1.407       .  A
C1015      C1020   1.398       .  A
C1015      C1029   1.443       .  S
C1016      C1021   1.480       .  S
C1016      C1017   1.401       .  A
C1017      C1018   1.399       .  A
C1017      H1036   1.085       .  S
C1018      C1019   1.414       .  A
C1018      C1030   1.442       .  S
C1019      C1020   1.407       .  A
C1020      H1035   1.084       .  S
C1021      C1022   1.401       .  A
C1021      C1026   1.407       .  A
C1022      C1023   1.401       .  A
C1022      H1037   1.085       .  S
C1023      C1024   1.417       .  A
C1023      C1027   1.444       .  S
C1024      C1025   1.409       .  A
C1025      C1026   1.397       .  A
C1025      H1038   1.085       .  S
C1026      C1028   1.445       .  S
C1027      N1031   1.157       .  T
C1028      N1032   1.157       .  T
C1029      N1034   1.157       .  T
C1030      N1033   1.157       .  T
C1039      C1040   1.407       .  A
C1039      C1044   1.400       .  A
C1039      C1053   1.444       .  S
C1040      C1045   1.481       .  S
C1040      C1041   1.400       .  A
C1041      C1042   1.399       .  A
C1041      H1060   1.085       .  S
C1042      C1043   1.418       .  A
C1042      C1054   1.444       .  S
C1043      C1044   1.410       .  A
C1044      H1059   1.084       .  S
C1045      C1046   1.400       .  A
C1045      C1050   1.408       .  A
C1046      C1047   1.399       .  A
C1046      H1061   1.085       .  S
C1047      C1048   1.415       .  A
C1047      C1051   1.442       .  S
C1048      C1049   1.406       .  A
C1049      C1050   1.399       .  A
C1049      H1062   1.084       .  S
C1050      C1052   1.443       .  S
C1051      N1055   1.157       .  T
C1052      N1056   1.157       .  T
C1053      N1058   1.157       .  T
C1054      N1057   1.157       .  T
C1063      H1064   1.110       .  S
C1063      C1069   1.534       .  S
C1063      C1068   1.532       .  S
C1063      C1067   1.541       .  S
C1065      H1066   1.110       .  S
C1065      C1071   1.538       .  S
C1065      C1070   1.537       .  S
C1065      C1072   1.530       .  S
C1067      C1070   1.382       .  D
C1067      C1373   1.491       .  S
C1068      C1071   1.376       .  D
C1068      C1402   1.490       .  S
C1069      C1072   1.371       .  D
C1069      C1354   1.481       .  S
C1070      C1301   1.498       .  S
C1071      C1325   1.483       .  S
C1072      C1282   1.483       .  S
C1073      H1074   1.110       .  S
C1073      C1079   1.540       .  S
C1073      C1078   1.539       .  S
C1073      C1077   1.532       .  S
C1075      H1076   1.111       .  S
C1075      C1081   1.543       .  S
C1075      C1080   1.540       .  S
C1075      C1082   1.534       .  S
C1077      C1080   1.373       .  D
C1077      C1229   1.486       .  S
C1078      C1081   1.383       .  D
C1078      C1205   1.492       .  S
C1079      C1082   1.369       .  D
C1079      C1253   1.481       .  S
C1080      C1157   1.484       .  S
C1081      C1133   1.497       .  S
C1082      C1181   1.489       .  S
O1083      C1099   1.275       .  A
C1084      O1100   1.275       .  A
C1084      O1097   1.276       .  A
C1084      C1330   1.487       .  S
O1085      C1098   1.275       .  A
O1086      C1104   1.277       .  A
O1086     Cd1095   2.075   1_554  S
O1087      C1101   1.274       .  A
O1088      C1099   1.273       .  A
O1088     Cd1091   2.063       .  S
Zn1089     O1102   2.015   1_556  S
O1090      C1101   1.276       .  A
Cd1091     O1093   2.058   1_556  S
Cd1092     O1094   2.007       .  S
O1093      C1103   1.273       .  A
Cd1095     O1097   2.079       .  S
O1096      C1103   1.277       .  A
C1098      O1102   1.274       .  A
C1098      C1186   1.488       .  S
C1099      C1306   1.487       .  S
C1101      C1277   1.485       .  S
C1103      C1162   1.494       .  S
C1104      O1105   1.276       .  A
C1104      C1138   1.490       .  S
O1106      C1122   1.276       .  A
C1107      O1123   1.275       .  A
C1107      O1120   1.271       .  A
C1107      C1234   1.474       .  S
O1108      C1121   1.277       .  A
O1108     Cd1115   2.075       .  S
O1109      C1127   1.272       .  A
O1109     Cd1118   2.047       .  S
O1110      C1124   1.274       .  A
O1111      C1122   1.273       .  A
O1111     Cd1114   2.066       .  S
Zn1112     O1125   2.011       .  S
Zn1112     O1117   1.940       .  S
O1113      C1124   1.271       .  A
Cd1114     O1116   2.065       .  S
Cd1115     O1117   2.000       .  S
O1116      C1126   1.275       .  A
Cd1118     O1120   2.043       .  S
O1119      C1126   1.276       .  A
C1121      O1125   1.274       .  A
C1121      C1349   1.494       .  S
C1122      C1210   1.493       .  S
C1124      C1258   1.475       .  S
C1126      C1397   1.491       .  S
C1127      O1128   1.275       .  A
C1127      C1378   1.488       .  S
C1129      C1130   1.408       .  A
C1129      C1134   1.397       .  A
C1129      C1143   1.444       .  S
C1130      C1135   1.483       .  S
C1130      C1131   1.401       .  A
C1131      C1132   1.403       .  A
C1131      H1150   1.085       .  S
C1132      C1133   1.418       .  A
C1132      C1144   1.444       .  S
C1133      C1134   1.403       .  A
C1134      H1149   1.080       .  S
C1135      C1136   1.401       .  A
C1135      C1140   1.408       .  A
C1136      C1137   1.402       .  A
C1136      H1151   1.085       .  S
C1137      C1138   1.418       .  A
C1137      C1141   1.444       .  S
C1138      C1139   1.408       .  A
C1139      C1140   1.401       .  A
C1139      H1152   1.084       .  S
C1140      C1142   1.444       .  S
C1141      N1145   1.157       .  T
C1142      N1146   1.157       .  T
C1143      N1148   1.157       .  T
C1144      N1147   1.157       .  T
C1153      C1154   1.411       .  A
C1153      C1158   1.399       .  A
C1153      C1167   1.444       .  S
C1154      C1159   1.485       .  S
C1154      C1155   1.404       .  A
C1155      C1156   1.400       .  A
C1155      H1174   1.085       .  S
C1156      C1157   1.409       .  A
C1156      C1168   1.441       .  S
C1157      C1158   1.401       .  A
C1158      H1173   1.081       .  S
C1159      C1160   1.400       .  A
C1159      C1164   1.409       .  A
C1160      C1161   1.399       .  A
C1160      H1175   1.085       .  S
C1161      C1162   1.421       .  A
C1161      C1165   1.445       .  S
C1162      C1163   1.409       .  A
C1163      C1164   1.402       .  A
C1163      H1176   1.084       .  S
C1164      C1166   1.444       .  S
C1165      N1169   1.157   1_554  T
C1166      N1170   1.157       .  T
C1167      N1172   1.157       .  T
C1168      N1171   1.156       .  T
C1177      C1178   1.407       .  A
C1177      C1182   1.401       .  A
C1177      C1191   1.443       .  S
C1178      C1183   1.478       .  S
C1178      C1179   1.399       .  A
C1179      C1180   1.399       .  A
C1179      H1198   1.085       .  S
C1180      C1181   1.412       .  A
C1180      C1192   1.440       .  S
C1181      C1182   1.407       .  A
C1182      H1197   1.083       .  S
C1183      C1184   1.399       .  A
C1183      C1188   1.407       .  A
C1184      C1185   1.400       .  A
C1184      H1199   1.085       .  S
C1185      C1186   1.418       .  A
C1185      C1189   1.445       .  S
C1186      C1187   1.409       .  A
C1187      C1188   1.401       .  A
C1187      H1200   1.084       .  S
C1188      C1190   1.445       .  S
C1189      N1193   1.157       .  T
C1190      N1194   1.157       .  T
C1191      N1196   1.157   1_565  T
C1192      N1195   1.156       .  T
C1201      C1202   1.411       .  A
C1201      C1206   1.398       .  A
C1201      C1215   1.444       .  S
C1202      C1207   1.490       .  S
C1202      C1203   1.404       .  A
C1203      C1204   1.400       .  A
C1203      H1222   1.085       .  S
C1204      C1205   1.413       .  A
C1204      C1216   1.442       .  S
C1205      C1206   1.406       .  A
C1206      H1221   1.084       .  S
C1207      C1208   1.402       .  A
C1207      C1212   1.411       .  A
C1208      C1209   1.401       .  A
C1208      H1223   1.085       .  S
C1209      C1210   1.420       .  A
C1209      C1213   1.444       .  S
C1210      C1211   1.408       .  A
C1211      C1212   1.400       .  A
C1211      H1224   1.084       .  S
C1212      C1214   1.445       .  S
C1213      N1217   1.157       .  T
C1214      N1218   1.157       .  T
C1215      N1220   1.157       .  T
C1216      N1219   1.157       .  T
C1225      C1226   1.406       .  A
C1225      C1230   1.395       .  A
C1225      C1239   1.444       .  S
C1226      C1231   1.475       .  S
C1226      C1227   1.402       .  A
C1227      C1228   1.401       .  A
C1227      H1246   1.085       .  S
C1228      C1229   1.412       .  A
C1228      C1240   1.442       .  S
C1229      C1230   1.398       .  A
C1230      H1245   1.073       .  S
C1231      C1232   1.399       .  A
C1231      C1236   1.410       .  A
C1232      C1233   1.396       .  A
C1232      H1247   1.085       .  S
C1233      C1234   1.414       .  A
C1233      C1237   1.445       .  S
C1234      C1235   1.404       .  A
C1235      C1236   1.400       .  A
C1235      H1248   1.085       .  S
C1236      C1238   1.444       .  S
C1237      N1241   1.157       .  T
C1238      N1242   1.157       .  T
C1239      N1244   1.157       .  T
C1240      N1243   1.157       .  T
C1249      C1250   1.409       .  A
C1249      C1254   1.399       .  A
C1249      C1263   1.443       .  S
C1250      C1255   1.479       .  S
C1250      C1251   1.400       .  A
C1251      C1252   1.394       .  A
C1251      H1270   1.085       .  S
C1252      C1253   1.411       .  A
C1252      C1264   1.439       .  S
C1253      C1254   1.404       .  A
C1254      H1269   1.085       .  S
C1255      C1256   1.402       .  A
C1255      C1260   1.411       .  A
C1256      C1257   1.398       .  A
C1256      H1271   1.085       .  S
C1257      C1258   1.415       .  A
C1257      C1261   1.445       .  S
C1258      C1259   1.403       .  A
C1259      C1260   1.395       .  A
C1259      H1272   1.085       .  S
C1260      C1262   1.445       .  S
C1262      N1266   1.157       .  T
C1263      N1268   1.157       .  T
C1264      N1267   1.157       .  T
C1273      C1274   1.410       .  A
C1273      C1278   1.400       .  A
C1273      C1287   1.444       .  S
C1274      C1279   1.484       .  S
C1274      C1275   1.401       .  A
C1275      C1276   1.401       .  A
C1275      H1294   1.085       .  S
C1276      C1277   1.417       .  A
C1276      C1288   1.445       .  S
C1277      C1278   1.406       .  A
C1278      H1293   1.085       .  S
C1279      C1280   1.403       .  A
C1279      C1284   1.412       .  A
C1280      C1281   1.400       .  A
C1280      H1295   1.085       .  S
C1281      C1282   1.412       .  A
C1281      C1285   1.443       .  S
C1282      C1283   1.401       .  A
C1283      C1284   1.399       .  A
C1283      H1296   1.085       .  S
C1284      C1286   1.444       .  S
C1285      N1289   1.157       .  T
C1286      N1290   1.157       .  T
C1287      N1292   1.157       .  T
C1288      N1291   1.158       .  T
C1297      C1298   1.408       .  A
C1297      C1302   1.401       .  A
C1297      C1311   1.444       .  S
C1298      C1303   1.483       .  S
C1298      C1299   1.399       .  A
C1299      C1300   1.400       .  A
C1299      H1318   1.085       .  S
C1300      C1301   1.417       .  A
C1300      C1312   1.441       .  S
C1301      C1302   1.409       .  A
C1302      H1317   1.084       .  S
C1303      C1304   1.401       .  A
C1303      C1308   1.408       .  A
C1304      C1305   1.400       .  A
C1304      H1319   1.085       .  S
C1305      C1306   1.417       .  A
C1305      C1309   1.444       .  S
C1306      C1307   1.408       .  A
C1307      C1308   1.401       .  A
C1307      H1320   1.084       .  S
C1308      C1310   1.444       .  S
C1309      N1313   1.157       .  T
C1310      N1314   1.157       .  T
C1311      N1316   1.157       .  T
C1312      N1315   1.157       .  T
C1321      C1322   1.412       .  A
C1321      C1326   1.399       .  A
C1321      C1335   1.444       .  S
C1322      C1327   1.485       .  S
C1322      C1323   1.403       .  A
C1323      C1324   1.400       .  A
C1323      H1342   1.085       .  S
C1324      C1325   1.413       .  A
C1324      C1336   1.444       .  S
C1325      C1326   1.401       .  A
C1326      H1341   1.085       .  S
C1327      C1328   1.403       .  A
C1327      C1332   1.409       .  A
C1328      C1329   1.402       .  A
C1328      H1343   1.085       .  S
C1329      C1330   1.416       .  A
C1329      C1333   1.444       .  S
C1330      C1331   1.407       .  A
C1331      C1332   1.401       .  A
C1331      H1344   1.085       .  S
C1332      C1334   1.444       .  S
C1333      N1337   1.157       .  T
C1334      N1338   1.157       .  T
C1335      N1340   1.157       .  T
C1336      N1339   1.157       .  T
C1345      C1346   1.409       .  A
C1345      C1350   1.401       .  A
C1345      C1359   1.445       .  S
C1346      C1351   1.486       .  S
C1346      C1347   1.401       .  A
C1347      C1348   1.399       .  A
C1347      H1366   1.085       .  S
C1348      C1349   1.421       .  A
C1348      C1360   1.445       .  S
C1349      C1350   1.410       .  A
C1350      H1365   1.084       .  S
C1351      C1352   1.404       .  A
C1351      C1356   1.412       .  A
C1352      C1353   1.399       .  A
C1352      H1367   1.085       .  S
C1353      C1354   1.411       .  A
C1353      C1357   1.444       .  S
C1354      C1355   1.401       .  A
C1355      C1356   1.399       .  A
C1355      H1368   1.085       .  S
C1356      C1358   1.444       .  S
C1357      N1361   1.157       .  T
C1358      N1362   1.157       .  T
C1359      N1364   1.157       .  T
C1360      N1363   1.158       .  T
C1369      C1370   1.407       .  A
C1369      C1374   1.398       .  A
C1369      C1383   1.443       .  S
C1370      C1375   1.480       .  S
C1370      C1371   1.401       .  A
C1371      C1372   1.399       .  A
C1371      H1390   1.085       .  S
C1372      C1373   1.414       .  A
C1372      C1384   1.442       .  S
C1373      C1374   1.407       .  A
C1374      H1389   1.084       .  S
C1375      C1376   1.401       .  A
C1375      C1380   1.407       .  A
C1376      C1377   1.401       .  A
C1376      H1391   1.085       .  S
C1377      C1378   1.417       .  A
C1377      C1381   1.444       .  S
C1378      C1379   1.409       .  A
C1379      C1380   1.397       .  A
C1379      H1392   1.085       .  S
C1380      C1382   1.445       .  S
C1381      N1385   1.157       .  T
C1382      N1386   1.157       .  T
C1383      N1388   1.157       .  T
C1384      N1387   1.157       .  T
C1393      C1394   1.407       .  A
C1393      C1398   1.400       .  A
C1393      C1407   1.444       .  S
C1394      C1399   1.481       .  S
C1394      C1395   1.400       .  A
C1395      C1396   1.399       .  A
C1395      H1414   1.085       .  S
C1396      C1397   1.418       .  A
C1396      C1408   1.444       .  S
C1397      C1398   1.410       .  A
C1398      H1413   1.084       .  S
C1399      C1400   1.400       .  A
C1399      C1404   1.408       .  A
C1400      C1401   1.399       .  A
C1400      H1415   1.085       .  S
C1401      C1402   1.415       .  A
C1401      C1405   1.442       .  S
C1402      C1403   1.406       .  A
C1403      C1404   1.399       .  A
C1403      H1416   1.084       .  S
C1404      C1406   1.443       .  S
C1405      N1409   1.157       .  T
C1406      N1410   1.157       .  T
C1407      N1412   1.157       .  T
C1408      N1411   1.157       .  T
