geometry optimzed in LAMMPS
_audit_creation_date              2020-11-30 
_audit_creation_method            'lammps2cif' 
_symmetry_space_group_name_H-M    'P1' 
_symmetry_Int_Tables_number       1 
_symmetry_cell_setting            triclinic 
loop_ 
_symmetry_equiv_pos_as_xyz 
  x,y,z 
_cell_length_a                    48.15170643358183 
_cell_length_b                    48.085293735527074 
_cell_length_c                    48.12553498272107 
_cell_angle_alpha                 89.71498696332982 
_cell_angle_beta                  89.93529456356697 
_cell_angle_gamma                 90.02251177503447 
loop_ 
_atom_site_label 
_atom_site_type_symbol 
_atom_site_fract_x 
_atom_site_fract_y 
_atom_site_fract_z 
_atom_site_charge 
N1          N  0.44169809  0.67981372  0.00092116    -0.26060
N2          N  0.45730512  0.65730766  0.00160160    -0.33920
C3          C  0.44117712  0.63472343  0.00286428     0.02280
C4          C  0.41374121  0.64308425  0.00342936     0.08310
C5          C  0.41473830  0.67198753  0.00184507    -0.04790
H6          H  0.44904063  0.61365573  0.00335367     0.08980
H7          H  0.39732440  0.68620733  0.00208488     0.10180
Cu8        Cu  0.49981704  0.65765092  0.00195886     0.44170
Cu9        Cu  0.46055191  0.71878300  0.99963703     0.41990
Cu10       Cu  0.53989996  0.71840234  0.99704204     0.43880
N11         N  0.54229833  0.65682963  0.00050650    -0.33440
N12         N  0.55814880  0.67904298  0.99790094    -0.27700
C13         C  0.58488866  0.67068817  0.99587214    -0.03800
C14         C  0.58550167  0.64171920  0.99709493     0.08420
C15         C  0.55804761  0.63395856  0.00042732     0.02210
H16         H  0.60235604  0.68455162  0.99303562     0.09860
H17         H  0.54984797  0.61313986  0.00262406     0.08940
N18         N  0.51416105  0.75339566  0.99810967    -0.34890
N19         N  0.48661514  0.75345121  0.99895211    -0.27070
C20         C  0.47766625  0.77992218  0.99956371    -0.02310
C21         C  0.50045608  0.79745966  0.99912862     0.06300
C22         C  0.52321169  0.77987448  0.99823274     0.04390
H23         H  0.45602661  0.78587690  0.00071978     0.09500
H24         H  0.54486521  0.78582105  0.99735106     0.08330
N25         N  0.70779761  0.53039818  0.00283654    -0.26060
N26         N  0.68633482  0.51550756  0.01128596    -0.33920
C27         C  0.66364712  0.53157501  0.01183433     0.02280
C28         C  0.67092591  0.55805411  0.00325088     0.08310
C29         C  0.69924907  0.55672100  0.99791616    -0.04790
H30         H  0.64305785  0.52415636  0.01701630     0.08980
H31         H  0.71226409  0.57314812  0.98967533     0.10180
Cu32       Cu  0.68724067  0.47310177  0.01713236     0.44170
Cu33       Cu  0.74624558  0.51168657  0.99668262     0.41990
Cu34       Cu  0.74595669  0.43335859  0.99813764     0.43880
N35         N  0.68576262  0.43071871  0.01172117    -0.33440
N36         N  0.70700213  0.41546178  0.00355746    -0.27700
C37         C  0.69794290  0.38937917  0.99853302    -0.03800
C38         C  0.66952052  0.38855458  0.00354219     0.08420
C39         C  0.66276869  0.41509669  0.01213634     0.02210
H40         H  0.71075818  0.37274517  0.99054024     0.09860
H41         H  0.64236302  0.42290020  0.01741194     0.08940
N42         N  0.78107483  0.45858862  0.99648537    -0.34890
N43         N  0.78114748  0.48614483  0.99550242    -0.27070
C44         C  0.80759395  0.49513074  0.99530123    -0.02310
C45         C  0.82501250  0.47228139  0.99642231     0.06300
C46         C  0.80747531  0.44949280  0.99714914     0.04390
H47         H  0.81363782  0.51679377  0.99525081     0.09500
H48         H  0.81341069  0.42781389  0.99809093     0.08330
N49         N  0.44138260  0.26583026  0.00153032    -0.26060
N50         N  0.45636055  0.28821581  0.00650423    -0.33920
C51         C  0.43963025  0.31032036  0.00863435     0.02280
C52         C  0.41253622  0.30161477  0.00496083     0.08310
C53         C  0.41434756  0.27318604  0.00022944    -0.04790
H54         H  0.44679326  0.33131621  0.01217467     0.08980
H55         H  0.39737746  0.25892744  0.99662451     0.10180
Cu56       Cu  0.49892433  0.28812734  0.00898872     0.44170
Cu57       Cu  0.46064190  0.22738108  0.99778971     0.41990
Cu58       Cu  0.53898442  0.22825362  0.99308374     0.43880
N59         N  0.54133379  0.28899553  0.00469089    -0.33440
N60         N  0.55680947  0.26746760  0.99777448    -0.27700
C61         C  0.58326657  0.27623904  0.99432393    -0.03800
C62         C  0.58409545  0.30475253  0.99907582     0.08420
C63         C  0.55713562  0.31181848  0.00591334     0.02210
H64         H  0.60032271  0.26307743  0.98793904     0.09860
H65         H  0.54927463  0.33223636  0.01101396     0.08940
N66         N  0.51386372  0.19286702  0.99415284    -0.34890
N67         N  0.48645840  0.19272055  0.99657303    -0.27070
C68         C  0.47763953  0.16627418  0.99841611    -0.02310
C69         C  0.50037988  0.14866860  0.99681345     0.06300
C70         C  0.52298171  0.16642272  0.99406444     0.04390
H71         H  0.45613027  0.16053063  0.00137554     0.09500
H72         H  0.54460563  0.16072861  0.99199698     0.08330
N73         N  0.29349842  0.53011023  0.99540253    -0.26060
N74         N  0.31609984  0.51467243  0.99381743    -0.33920
C75         C  0.33855031  0.53096950  0.99558052     0.02280
C76         C  0.32993320  0.55818649  0.99863471     0.08310
C77         C  0.30111140  0.55699747  0.99816970    -0.04790
H78         H  0.35970707  0.52337058  0.99526912     0.08980
H79         H  0.28681640  0.57414101  0.00086406     0.10180
Cu80       Cu  0.31620154  0.47193450  0.99219273     0.44170
Cu81       Cu  0.25433537  0.51180622  0.99589863     0.41990
Cu82       Cu  0.25405753  0.43355455  0.99932189     0.43880
N83         N  0.31550708  0.42921159  0.99449889    -0.33440
N84         N  0.29259298  0.41431700  0.99692727    -0.27700
C85         C  0.29954572  0.38719171  0.99911974    -0.03800
C86         C  0.32827364  0.38533253  0.99833325     0.08420
C87         C  0.33759910  0.41232150  0.99541629     0.02210
H88         H  0.28498214  0.37038395  0.00233931     0.09860
H89         H  0.35895289  0.41926523  0.99477204     0.08940
N90         N  0.21922336  0.45908853  0.99998466    -0.34890
N91         N  0.21921152  0.48656366  0.99800381    -0.27070
C92         C  0.19277875  0.49556911  0.99783373    -0.02310
C93         C  0.17518383  0.47279547  0.99999582     0.06300
C94         C  0.19284932  0.45006469  0.00143723     0.04390
H95         H  0.18697947  0.51718036  0.99568219     0.09500
H96         H  0.18718157  0.42844159  0.00356983     0.08330
N97         N  0.99363176  0.53104483  0.70744905    -0.26060
N98         N  0.99271885  0.51615543  0.68450510    -0.33920
C99         C  0.99463176  0.53304234  0.66238653     0.02280
C100        C  0.99671504  0.56005454  0.67167940     0.08310
C101        C  0.99584448  0.55819214  0.70044816    -0.04790
H102        H  0.99519562  0.52607342  0.64105956     0.08980
H103        H  0.99799295  0.57504000  0.71508368     0.10180
Cu104      Cu  0.99139416  0.47346846  0.68386931     0.44170
Cu105      Cu  0.99455433  0.51162517  0.74613450     0.41990
Cu106      Cu  0.99801286  0.43324877  0.74542796     0.43880
N107        N  0.99442658  0.43086702  0.68373091    -0.33440
N108        N  0.99718518  0.41526577  0.70619351    -0.27700
C109        C  0.00026288  0.38850725  0.69833800    -0.03800
C110        C  0.99972218  0.38761419  0.66948336     0.08420
C111        C  0.99573944  0.41484229  0.66113087     0.02210
H112        H  0.00361004  0.37125624  0.71245030     0.09860
H113        H  0.99424471  0.42262373  0.64006079     0.08940
N114        N  0.99812415  0.45823500  0.78068305    -0.34890
N115        N  0.99691528  0.48576963  0.78088212    -0.27070
C116        C  0.99738329  0.49453165  0.80735899    -0.02310
C117        C  0.99890930  0.47155784  0.82473880     0.06300
C118        C  0.99933075  0.44892636  0.80705567     0.04390
H119        H  0.99618010  0.51611645  0.81343887     0.09500
H120        H  0.00074114  0.42721046  0.81283329     0.08330
N121        N  0.00023243  0.67964073  0.55807457    -0.26060
N122        N  0.00415465  0.65704073  0.54314889    -0.33920
C123        C  0.00616058  0.63494232  0.56004250     0.02280
C124        C  0.00344650  0.64386097  0.58715169     0.08310
C125        C  0.99944800  0.67241149  0.58521495    -0.04790
H126        H  0.00906460  0.61381316  0.55300148     0.08980
H127        H  0.99676820  0.68684028  0.60217151     0.10180
Cu128      Cu  0.00596088  0.65677660  0.50049751     0.44170
Cu129      Cu  0.99743862  0.71834164  0.53887677     0.41990
Cu130      Cu  0.99760004  0.71836079  0.46050173     0.43880
N131        N  0.00332878  0.65677036  0.45789587    -0.33440
N132        N  0.99993906  0.67921875  0.44237684    -0.27700
C133        C  0.99724575  0.67136950  0.41559416    -0.03800
C134        C  0.99868109  0.64253297  0.41461503     0.08420
C135        C  0.00277141  0.63418477  0.44179535     0.02210
H136        H  0.99343492  0.68542657  0.39840048     0.09860
H137        H  0.00467775  0.61309616  0.44949548     0.08940
N138        N  0.99709648  0.75343758  0.48576303    -0.34890
N139        N  0.99731536  0.75335713  0.51329093    -0.27070
C140        C  0.99776900  0.77976515  0.52228746    -0.02310
C141        C  0.99769180  0.79746326  0.49947956     0.06300
C142        C  0.99722972  0.77993842  0.47669286     0.04390
H143        H  0.99867307  0.78549988  0.54395163     0.09500
H144        H  0.99675095  0.78587272  0.45500626     0.08330
N145        N  0.00276380  0.52997764  0.29452666    -0.26060
N146        N  0.00410054  0.51433741  0.31710895    -0.33920
C147        C  0.00229639  0.53046275  0.33961021     0.02280
C148        C  0.99940062  0.55778561  0.33107699     0.08310
C149        C  0.00006778  0.55682272  0.30222619    -0.04790
H150        H  0.00271985  0.52267677  0.36072716     0.08980
H151        H  0.99775055  0.57411411  0.28795570     0.10180
Cu152      Cu  0.00575548  0.47159589  0.31737302     0.44170
Cu153      Cu  0.00283890  0.51222929  0.25514812     0.41990
Cu154      Cu  0.99774268  0.43443332  0.25493562     0.43880
N155        N  0.00361912  0.42889090  0.31630557    -0.33440
N156        N  0.00077311  0.41451966  0.29318091    -0.27700
C157        C  0.99920032  0.38723192  0.29966498    -0.03800
C158        C  0.00099573  0.38469731  0.32828680     0.08420
C159        C  0.00362715  0.41144741  0.33811545     0.02210
H160        H  0.99600550  0.37071032  0.28485325     0.09860
H161        H  0.00482892  0.41781996  0.35959889     0.08940
N162        N  0.99783132  0.45996238  0.21997359    -0.34890
N163        N  0.00072863  0.48732947  0.21988021    -0.27070
C164        C  0.00158694  0.49633604  0.19339070    -0.02310
C165        C  0.99883075  0.47366832  0.17579889     0.06300
C166        C  0.99634816  0.45102070  0.19362523     0.04390
H167        H  0.00458066  0.51786329  0.18761123     0.09500
H168        H  0.99348191  0.42946372  0.18814487     0.08330
N169        N  0.99882583  0.26684737  0.55758098    -0.26060
N170        N  0.99444977  0.28921802  0.54217345    -0.33920
C171        C  0.99481654  0.31178314  0.55833296     0.02280
C172        C  0.99973740  0.30347488  0.58539204     0.08310
C173        C  0.00192111  0.27471329  0.58430239    -0.04790
H174        H  0.99226142  0.33284470  0.55074830     0.08980
H175        H  0.00654980  0.26073711  0.60135910     0.10180
Cu176      Cu  0.99094136  0.28932190  0.49955107     0.44170
Cu177      Cu  0.00205809  0.22767528  0.53971300     0.41990
Cu178      Cu  0.00328589  0.22774530  0.46194172     0.43880
N179        N  0.99371181  0.28870692  0.45687799    -0.33440
N180        N  0.99963735  0.26617908  0.44248045    -0.27700
C181        C  0.00149896  0.27309199  0.41533616    -0.03800
C182        C  0.99601863  0.30129217  0.41280058     0.08420
C183        C  0.99124220  0.31044132  0.43952336     0.02210
H184        H  0.00596133  0.25866674  0.39874836     0.09860
H185        H  0.98676890  0.33149790  0.44595657     0.08940
N186        N  0.00299148  0.19258388  0.48721509    -0.34890
N187        N  0.00294044  0.19245411  0.51472422    -0.27070
C188        C  0.00249262  0.16594084  0.52374862    -0.02310
C189        C  0.00203683  0.14844937  0.50091271     0.06300
C190        C  0.00232445  0.16621444  0.47814578     0.04390
H191        H  0.00267274  0.15999375  0.54543360     0.09500
H192        H  0.00144652  0.16058198  0.45645634     0.08330
N193        N  0.44212961  0.97362137  0.70629198    -0.26060
N194        N  0.45814767  0.97258240  0.68410854    -0.33920
C195        C  0.44253661  0.97314595  0.66120335     0.02280
C196        C  0.41496385  0.97532488  0.66890477     0.08310
C197        C  0.41538726  0.97523424  0.69787707    -0.04790
H198        H  0.45095483  0.97221211  0.64039442     0.08980
H199        H  0.39777645  0.97703708  0.71173131     0.10180
Cu200      Cu  0.50057730  0.97302263  0.68503458     0.44170
Cu201      Cu  0.46035192  0.97339925  0.74559568     0.41990
Cu202      Cu  0.53994316  0.97475094  0.74580463     0.43880
N203        N  0.54300960  0.97383799  0.68438563    -0.33440
N204        N  0.55874626  0.97380737  0.70675860    -0.27700
C205        C  0.58563100  0.97250561  0.69870179    -0.03800
C206        C  0.58643819  0.97152131  0.66975806     0.08420
C207        C  0.55893501  0.97285976  0.66167418     0.02210
H208        H  0.60308171  0.97158201  0.71278951     0.09860
H209        H  0.55081380  0.97304188  0.64075426     0.08940
N210        N  0.51376465  0.97449407  0.78046839    -0.34890
N211        N  0.48624709  0.97332811  0.78042784    -0.27070
C212        C  0.47721151  0.97254512  0.80687421    -0.02310
C213        C  0.49991362  0.97351906  0.82458188     0.06300
C214        C  0.52268093  0.97482101  0.80692777     0.04390
H215        H  0.45554532  0.97095046  0.81258681     0.09500
H216        H  0.54431718  0.97630274  0.81268270     0.08330
N217        N  0.70804502  0.97607628  0.55776329    -0.26060
N218        N  0.68618183  0.98345702  0.54294847    -0.33920
C219        C  0.66368473  0.98389798  0.55929907     0.02280
C220        C  0.67153773  0.97644099  0.58589529     0.08310
C221        C  0.69995829  0.97181748  0.58433502    -0.04790
H222        H  0.64286373  0.98826744  0.55205438     0.08980
H223        H  0.71337872  0.96450487  0.60082784     0.10180
Cu224      Cu  0.68648886  0.98848691  0.50050945     0.44170
Cu225      Cu  0.74644071  0.97033259  0.53875943     0.41990
Cu226      Cu  0.74622469  0.97397475  0.46048364     0.43880
N227        N  0.68529600  0.98374998  0.45811160    -0.33440
N228        N  0.70703417  0.97753579  0.44262762    -0.27700
C229        C  0.69834567  0.97299915  0.41635092    -0.03800
C230        C  0.66966534  0.97625115  0.41566090     0.08420
C231        C  0.66234629  0.98331390  0.44248282     0.02210
H232        H  0.71167713  0.96667099  0.39940407     0.09860
H233        H  0.64165779  0.98720115  0.45037270     0.08940
N234        N  0.78133528  0.97185101  0.48569323    -0.34890
N235        N  0.78135551  0.96946568  0.51317027    -0.27070
C236        C  0.80779424  0.96831227  0.52211622    -0.02310
C237        C  0.82511792  0.97047826  0.49934755     0.06300
C238        C  0.80777123  0.97277806  0.47664295     0.04390
H239        H  0.81393864  0.96684466  0.54367994     0.09500
H240        H  0.81389483  0.97491773  0.45510625     0.08330
N241        N  0.44165907  0.97633563  0.29324421    -0.26060
N242        N  0.45619977  0.98160625  0.31584870    -0.33920
C243        C  0.43926756  0.98156817  0.33794578     0.02280
C244        C  0.41259953  0.97619192  0.32894688     0.08310
C245        C  0.41471779  0.97310044  0.30038496    -0.04790
H246        H  0.44605417  0.98422857  0.35917777     0.08980
H247        H  0.39829173  0.96749759  0.28617569     0.10180
Cu248      Cu  0.49876683  0.98533221  0.31648673     0.44170
Cu249      Cu  0.46126002  0.97170111  0.25506894     0.41990
Cu250      Cu  0.53926579  0.97525813  0.25566322     0.43880
N251        N  0.54133020  0.98169332  0.31717208    -0.33440
N252        N  0.55692147  0.97724171  0.29507112    -0.27700
C253        C  0.58342977  0.97338744  0.30340143    -0.03800
C254        C  0.58424100  0.97527788  0.33221662     0.08420
C255        C  0.55716140  0.98086117  0.33999069     0.02210
H256        H  0.60054198  0.96858765  0.28964338     0.09860
H257        H  0.54927882  0.98374339  0.36083058     0.08940
N258        N  0.51432010  0.97325329  0.22035724    -0.34890
N259        N  0.48692179  0.97098593  0.22029157    -0.27070
C260        C  0.47803421  0.96976566  0.19388005    -0.02310
C261        C  0.50074900  0.97175437  0.17620266     0.06300
C262        C  0.52339027  0.97395047  0.19392670     0.04390
H263        H  0.45644772  0.96748618  0.18823385     0.09500
H264        H  0.54496746  0.97654396  0.18826255     0.08330
N265        N  0.29183223  0.97354044  0.44124478    -0.26060
N266        N  0.31410216  0.96965780  0.45668952    -0.33920
C267        C  0.33650597  0.96763609  0.44041006     0.02280
C268        C  0.32823225  0.96990726  0.41300926     0.08310
C269        C  0.29962044  0.97395806  0.41424857    -0.04790
H270        H  0.35740517  0.96494278  0.44817179     0.08980
H271        H  0.28551978  0.97641517  0.39694165     0.10180
Cu272      Cu  0.31373185  0.96687926  0.49917374     0.44170
Cu273      Cu  0.25302558  0.97700146  0.46011482     0.41990
Cu274      Cu  0.25350858  0.97588944  0.53924287     0.43880
N275        N  0.31460354  0.96842529  0.54168164    -0.33440
N276        N  0.29262273  0.97274221  0.55744161    -0.27700
C277        C  0.30109689  0.97549503  0.58405692    -0.03800
C278        C  0.32988259  0.97298242  0.58464938     0.08420
C279        C  0.33745623  0.96815914  0.55740520     0.02210
H280        H  0.28754446  0.98019169  0.60135869     0.09860
H281        H  0.35824426  0.96542988  0.54929363     0.08940
N282        N  0.21849964  0.97649214  0.51372022    -0.34890
N283        N  0.21833719  0.97704426  0.48616735    -0.27070
C284        C  0.19185259  0.97668917  0.47733243    -0.02310
C285        C  0.17441649  0.97578178  0.50024144     0.06300
C286        C  0.19212171  0.97570702  0.52291376     0.04390
H287        H  0.18584645  0.97722306  0.45570455     0.09500
H288        H  0.18638456  0.97448477  0.54461147     0.08330
O289        O  0.99833116  0.01440521  0.52323870    -0.71710
O290        O  0.99939361  0.93099593  0.52288250    -0.72690
O291        O  0.04064726  0.97334801  0.52330005    -0.62000
O292        O  0.95733096  0.97185655  0.52288425    -0.69720
O293        O  0.95769384  0.97377045  0.47673846    -0.69280
O294        O  0.04105071  0.97261460  0.47724305    -0.60530
O295        O  0.99902453  0.93141582  0.47680785    -0.73040
O296        O  0.99996721  0.01481766  0.47720936    -0.71820
Cu297      Cu  0.99892635  0.97264835  0.52468327     1.04560
Cu298      Cu  0.99942788  0.97316658  0.47538968     1.04330
C299        C  0.99922815  0.02784531  0.50027473     0.94490
C300        C  0.99916233  0.91799120  0.49979466     0.93620
C301        C  0.05405586  0.97304572  0.50036408     0.85770
C302        C  0.94444981  0.97270583  0.49972930     0.92040
O303        O  0.47735544  0.01453311  0.00048276    -0.71710
O304        O  0.47727359  0.93110372  0.00013839    -0.72690
O305        O  0.47746692  0.97252211  0.04212083    -0.61310
O306        O  0.47716796  0.97322813  0.95872570    -0.69720
O307        O  0.52316158  0.97269144  0.95859940    -0.69280
O308        O  0.52344716  0.97278792  0.04199598    -0.60530
O309        O  0.52332123  0.93106159  0.00070154    -0.73040
O310        O  0.52334327  0.01454886  0.00012501    -0.71820
Cu311      Cu  0.47572248  0.97284350  0.00039763     1.04560
Cu312      Cu  0.52491296  0.97278008  0.00034363     1.04330
C313        C  0.50034629  0.02781377  0.00021471     0.94490
C314        C  0.50028489  0.91787139  0.00040152     0.93620
C315        C  0.50048622  0.97259232  0.05532748     0.85770
C316        C  0.50013422  0.97299857  0.94540296     0.92040
O317        O  0.99892483  0.49577444  0.04123603    -0.71710
O318        O  0.00068620  0.49489900  0.95787974    -0.72690
O319        O  0.95814997  0.49536317  0.99856447    -0.61310
O320        O  0.04134778  0.49540211  0.00033685    -0.69720
O321        O  0.04134450  0.44934525  0.99986809    -0.69280
O322        O  0.95801360  0.44926091  0.00085988    -0.60530
O323        O  0.99920097  0.44881403  0.95861381    -0.73040
O324        O  0.00003878  0.44976004  0.04194740    -0.71820
Cu325      Cu  0.99976906  0.49695764  0.99949595     1.04560
Cu326      Cu  0.99965932  0.44768673  0.00034708     1.04330
C327        C  0.99942356  0.47289939  0.05487173     0.94490
C328        C  0.00000194  0.47171356  0.94504158     0.93620
C329        C  0.94493134  0.47233880  0.99956859     0.85770
C330        C  0.05458553  0.47238733  0.00014999     0.92040
C331        C  0.12897935  0.96166480  0.47879403     0.24830
C332        C  0.14358558  0.97476452  0.50044189    -0.23280
C333        C  0.12840413  0.98695102  0.52225113     0.19740
C334        C  0.09936422  0.98612704  0.52236447     0.24770
C335        C  0.08480736  0.97335137  0.50054674    -0.23220
C336        C  0.09993210  0.96110922  0.47877421     0.19670
F337        F  0.08663704  0.94791736  0.45774142    -0.13180
F338        F  0.14272772  0.94859988  0.45797220    -0.15540
F339        F  0.08549005  0.99868714  0.54343370    -0.15550
F340        F  0.14154221  0.00057722  0.54307806    -0.13180
C341        C  0.36367281  0.98627932  0.34410328     0.24830
C342        C  0.38849045  0.97121413  0.34723406    -0.23280
C343        C  0.39148788  0.95313605  0.36997573     0.19740
C344        C  0.37089576  0.95139527  0.39023272     0.24770
C345        C  0.34701845  0.96823450  0.38860404    -0.23220
C346        C  0.34305064  0.98493424  0.36478034     0.19670
F347        F  0.32023846  0.00132918  0.36236825    -0.13180
F348        F  0.36028441  0.00373810  0.32211655    -0.15540
F349        F  0.37465159  0.93343169  0.41175681    -0.15550
F350        F  0.41478525  0.93747745  0.37290590    -0.13180
C351        C  0.47663135  0.97989152  0.10121485     0.24830
C352        C  0.50057367  0.97243233  0.08619713    -0.23280
C353        C  0.52461332  0.96483436  0.10103602     0.19740
C354        C  0.52462245  0.96440436  0.13010023     0.24770
C355        C  0.50071654  0.97203112  0.14520643    -0.23220
C356        C  0.47676619  0.97995393  0.13026951     0.19670
F357        F  0.45350048  0.98863990  0.14355425    -0.13180
F358        F  0.45307515  0.98780184  0.08785525    -0.15540
F359        F  0.54798404  0.95570852  0.14324530    -0.15550
F360        F  0.54812422  0.95715461  0.08748929    -0.13180
C361        C  0.62378516  0.96008560  0.39820090     0.24830
C362        C  0.64994673  0.97178309  0.39248907    -0.23280
C363        C  0.65576515  0.98103676  0.36530493     0.19740
C364        C  0.63485597  0.98088652  0.34492636     0.24770
C365        C  0.60794691  0.97139443  0.35153083    -0.23220
C366        C  0.60311233  0.95982887  0.37800846     0.19670
F367        F  0.57817333  0.94835483  0.38459221    -0.13180
F368        F  0.61800156  0.94902543  0.42357711    -0.15540
F369        F  0.64047263  0.99162196  0.31940017    -0.15550
F370        F  0.68102807  0.99187020  0.35894300    -0.13180
C371        C  0.86990658  0.99494268  0.49029265     0.24830
C372        C  0.85564441  0.97109051  0.49940158    -0.23280
C373        C  0.87070087  0.94784817  0.50868252     0.19740
C374        C  0.89974573  0.94839568  0.50874375     0.24770
C375        C  0.91399160  0.97220764  0.49957637    -0.23220
C376        C  0.89896612  0.99550169  0.49039698     0.19670
F377        F  0.91245941  0.01896700  0.48223610    -0.13180
F378        F  0.85565697  0.01789827  0.48204415    -0.15540
F379        F  0.91401720  0.92549727  0.51712770    -0.15550
F380        F  0.85724548  0.92442492  0.51701225    -0.13180
C381        C  0.60681466  0.95587077  0.62472225     0.24830
C382        C  0.61048907  0.96907748  0.65053355    -0.23280
C383        C  0.63636831  0.98146652  0.65635324     0.19740
C384        C  0.65722260  0.98247676  0.63587315     0.24770
C385        C  0.65227602  0.97144644  0.60932778    -0.23220
C386        C  0.62727492  0.95734921  0.60432911     0.19670
F387        F  0.62243818  0.94514499  0.57940186    -0.13180
F388        F  0.58322905  0.94155923  0.61893289    -0.15540
F389        F  0.68144294  0.99580087  0.64135990    -0.15550
F390        F  0.64092768  0.99403835  0.68111170    -0.13180
C391        C  0.36477382  0.96705024  0.65540290     0.24830
C392        C  0.39123886  0.97808362  0.64933669    -0.23280
C393        C  0.39566899  0.99052465  0.62314922     0.19740
C394        C  0.37521697  0.98980614  0.60279954     0.24770
C395        C  0.34951243  0.97693625  0.60800988    -0.23220
C396        C  0.34399537  0.96656998  0.63486278     0.19670
F397        F  0.31914808  0.95457884  0.64076600    -0.13180
F398        F  0.35943526  0.95541339  0.68059013    -0.15540
F399        F  0.38074389  0.00186152  0.57781700    -0.15550
F400        F  0.41991570  0.00359478  0.61698125    -0.13180
C401        C  0.52317473  0.96357219  0.87050540     0.24830
C402        C  0.49989820  0.97326515  0.85556324    -0.23280
C403        C  0.47665684  0.98277976  0.87062637     0.19740
C404        C  0.47665995  0.98247933  0.89969924     0.24770
C405        C  0.50004479  0.97307567  0.91454833    -0.23220
C406        C  0.52332287  0.96370522  0.89957134     0.19670
F407        F  0.54613968  0.95395152  0.91300626    -0.13180
F408        F  0.54566897  0.95310480  0.85717238    -0.15540
F409        F  0.45389343  0.99211922  0.91325970    -0.15550
F410        F  0.45406480  0.99324662  0.85740547    -0.13180
C411        C  0.01253348  0.10254777  0.47838216     0.24830
C412        C  0.00114595  0.11754300  0.50075020    -0.23280
C413        C  0.98887670  0.10264872  0.52287641     0.19740
C414        C  0.98830515  0.07355952  0.52276337     0.24770
C415        C  0.99963483  0.05865349  0.50036550    -0.23220
C416        C  0.01160557  0.07349713  0.47811035     0.19670
F417        F  0.02324352  0.05990794  0.45634155    -0.13180
F418        F  0.02546800  0.11582951  0.45705083    -0.15540
F419        F  0.97598450  0.06003248  0.54433233    -0.15550
F420        F  0.97661794  0.11611708  0.54434871    -0.13180
C421        C  0.01818728  0.31997748  0.36938284     0.24830
C422        C  0.99535140  0.31883636  0.38760518    -0.23280
C423        C  0.97299357  0.33717336  0.38359418     0.19740
C424        C  0.97413994  0.35747512  0.36282498     0.24770
C425        C  0.99761943  0.35974553  0.34571035    -0.23220
C426        C  0.01933979  0.34045415  0.34853515     0.19670
F427        F  0.04247758  0.34279036  0.33254307    -0.13180
F428        F  0.04027897  0.30285374  0.37321359    -0.15540
F429        F  0.95280790  0.37575460  0.36014808    -0.15550
F430        F  0.95038376  0.33597848  0.40045070    -0.13180
C431        C  0.00597600  0.44900379  0.10100885     0.24830
C432        C  0.99930332  0.47315908  0.08576231    -0.23280
C433        C  0.99251913  0.49751807  0.10041104     0.19740
C434        C  0.99212754  0.49764000  0.12948003     0.24770
C435        C  0.99899572  0.47352457  0.14479423    -0.23220
C436        C  0.00607557  0.44924137  0.13005209     0.19670
F437        F  0.01395866  0.42569003  0.14350759    -0.13180
F438        F  0.01301082  0.42506554  0.08790662    -0.15540
F439        F  0.98423086  0.52135445  0.14241920    -0.15550
F440        F  0.98568355  0.52128516  0.08668898    -0.13180
C441        C  0.00820312  0.62841525  0.36511655     0.24830
C442        C  0.99498483  0.62357815  0.39078545    -0.23280
C443        C  0.98004319  0.59876598  0.39471703     0.19740
C444        C  0.98018492  0.57821996  0.37445901     0.24770
C445        C  0.99540080  0.58186059  0.34975038    -0.23220
C446        C  0.00843713  0.60761958  0.34467394     0.19670
F447        F  0.02295213  0.61196431  0.32085335    -0.13180
F448        F  0.02247813  0.65235986  0.36058576    -0.15540
F449        F  0.96565306  0.55447342  0.37929964    -0.15550
F450        F  0.96555865  0.59412026  0.41852615    -0.13180
C451        C  0.98620928  0.84327339  0.52165821     0.24830
C452        C  0.99815534  0.82835757  0.49953399    -0.23280
C453        C  0.01055770  0.84330621  0.47752434     0.19740
C454        C  0.01076783  0.87239906  0.47753729     0.24770
C455        C  0.99892806  0.88721786  0.49971467    -0.23220
C456        C  0.98675637  0.87233828  0.52182064     0.19670
F457        F  0.97457000  0.88591775  0.54329512    -0.13180
F458        F  0.97312706  0.82986901  0.54282496    -0.15540
F459        F  0.02330442  0.88604008  0.45616371    -0.15550
F460        F  0.02332150  0.82988091  0.45631633    -0.13180
C461        C  0.98388914  0.60782207  0.65474029     0.24830
C462        C  0.00153657  0.58456535  0.65378282    -0.23280
C463        C  0.02204880  0.58314760  0.63310247     0.19740
C464        C  0.02370319  0.60356019  0.61253822     0.24770
C465        C  0.00469764  0.62574173  0.61204269    -0.23220
C466        C  0.98541557  0.62834321  0.63389952     0.19670
F467        F  0.96671864  0.64946147  0.63392257    -0.13180
F468        F  0.96383690  0.60953867  0.67450724    -0.15540
F469        F  0.04354817  0.60122342  0.59261241    -0.15550
F470        F  0.04006921  0.56143908  0.63234897    -0.13180
C471        C  0.01824050  0.36776522  0.62557983     0.24830
C472        C  0.00362234  0.36373426  0.65058322    -0.23280
C473        C  0.99092337  0.33782911  0.65571528     0.19740
C474        C  0.99094388  0.31720784  0.63510370     0.24770
C475        C  0.00360283  0.32238122  0.60921558    -0.23220
C476        C  0.01817219  0.34738783  0.60514982     0.19670
F477        F  0.03208051  0.35237025  0.58106569    -0.13180
F478        F  0.03233982  0.39175197  0.62063073    -0.15540
F479        F  0.97698114  0.29309308  0.63971500    -0.15550
F480        F  0.97689758  0.33318960  0.67977573    -0.13180
C481        C  0.01296626  0.49277564  0.87012798     0.24830
C482        C  0.99955907  0.47132724  0.85553514    -0.23280
C483        C  0.98656059  0.44982729  0.87066493     0.19740
C484        C  0.98689460  0.44982839  0.89972973     0.24770
C485        C  0.00006500  0.47142469  0.91429487    -0.23220
C486        C  0.01312684  0.49287540  0.89918213     0.19670
F487        F  0.02671664  0.51364805  0.91250998    -0.13180
F488        F  0.02666190  0.51330993  0.85633093    -0.15540
F489        F  0.97348897  0.42913895  0.91360228    -0.15550
F490        F  0.97259519  0.42927599  0.85741049    -0.13180
C491        C  0.12938035  0.44925561  0.99084469     0.24830
C492        C  0.14427644  0.47267521  0.00014317    -0.23280
C493        C  0.12925756  0.49599027  0.00947556     0.19740
C494        C  0.10021589  0.49595121  0.00931850     0.24770
C495        C  0.08539284  0.47245486  0.00022414    -0.23220
C496        C  0.10035033  0.44907594  0.99109595     0.19670
F497        F  0.08694262  0.42614788  0.98165027    -0.13180
F498        F  0.14272737  0.42668178  0.98057837    -0.15540
F499        F  0.08666300  0.51881409  0.01872444    -0.15550
F500        F  0.14251201  0.51869932  0.01956284    -0.13180
C501        C  0.34543411  0.33798983  0.98490231     0.24830
C502        C  0.34618080  0.36090435  0.00289923    -0.23280
C503        C  0.36663969  0.36211503  0.02357025     0.19740
C504        C  0.38710761  0.34172248  0.02522120     0.24770
C505        C  0.38778633  0.31981951  0.00597485    -0.23220
C506        C  0.36621391  0.31752077  0.98637169     0.19670
F507        F  0.36638914  0.29674869  0.96737715    -0.13180
F508        F  0.32589791  0.33655838  0.96464300    -0.15540
F509        F  0.40672256  0.34378578  0.04535715    -0.15550
F510        F  0.36724947  0.38360594  0.04176755    -0.13180
C511        C  0.52400247  0.07380996  0.00779387     0.24830
C512        C  0.50030038  0.05869428  0.99978347    -0.23280
C513        C  0.47657954  0.07343310  0.99107561     0.19740
C514        C  0.47668468  0.10248546  0.98996537     0.24770
C515        C  0.50037766  0.11769577  0.99798133    -0.23220
C516        C  0.52397943  0.10291270  0.00710882     0.19670
F517        F  0.54694138  0.11646340  0.01616702    -0.13180
F518        F  0.54715920  0.06049827  0.01690220    -0.15540
F519        F  0.45370711  0.11551474  0.98011131    -0.15550
F520        F  0.45333749  0.05977563  0.98283360    -0.13180
C521        C  0.63478516  0.31744845  0.00439842     0.24830
C522        C  0.60756742  0.32459474  0.99638098    -0.23280
C523        C  0.60222310  0.35195872  0.98738630     0.19740
C524        C  0.62281430  0.37222066  0.98856384     0.24770
C525        C  0.64943952  0.36573799  0.99863004    -0.23220
C526        C  0.65563206  0.33791818  0.00546198     0.19670
F527        F  0.68130879  0.33085452  0.01470612    -0.13180
F528        F  0.64084159  0.29114157  0.01273535    -0.15540
F529        F  0.61653494  0.39835467  0.97979027    -0.15550
F530        F  0.57689514  0.35931941  0.97739737    -0.13180
C531        C  0.89911128  0.45312142  0.01496037     0.24830
C532        C  0.91430014  0.47242052  0.99901606    -0.23280
C533        C  0.89997496  0.49173691  0.98235648     0.19740
C534        C  0.87095780  0.49164668  0.98149249     0.24770
C535        C  0.85571634  0.47231924  0.99738431    -0.23220
C536        C  0.87006837  0.45312357  0.01422878     0.19670
F537        F  0.85601086  0.43494572  0.03071527    -0.13180
F538        F  0.91237023  0.43479834  0.03191875    -0.15540
F539        F  0.85781987  0.50987885  0.96436072    -0.15550
F540        F  0.91410004  0.51012432  0.96614935    -0.13180
C541        C  0.62553374  0.57520150  0.98562173     0.24830
C542        C  0.65123656  0.58110576  0.99800041    -0.23280
C543        C  0.65668923  0.60837454  0.00693739     0.19740
C544        C  0.63580507  0.62879718  0.00558666     0.24770
C545        C  0.60934358  0.62219385  0.99496936    -0.23220
C546        C  0.60499624  0.59548996  0.98386516     0.19670
F547        F  0.58070935  0.58875787  0.97127232    -0.13180
F548        F  0.62012468  0.54954620  0.97525071    -0.15540
F549        F  0.64099877  0.65439798  0.01611749    -0.15550
F550        F  0.68154950  0.61477213  0.01853725    -0.13180
C551        C  0.37224495  0.57864455  0.01989543     0.24830
C552        C  0.34847281  0.58226138  0.00338198    -0.23280
C553        C  0.34423293  0.60798764  0.98995604     0.19740
C554        C  0.36474153  0.62879979  0.99110197     0.24770
C555        C  0.38958135  0.62408039  0.00582452    -0.23220
C556        C  0.39243032  0.59929715  0.02121838     0.19670
F557        F  0.41507987  0.59475063  0.03739956    -0.13180
F558        F  0.37622122  0.55480893  0.03461629    -0.15540
F559        F  0.36108400  0.65266053  0.97637912    -0.15550
F560        F  0.32121767  0.61227287  0.97425456    -0.13180
C561        C  0.47903328  0.87244054  0.98662295     0.24830
C562        C  0.50026459  0.88710860  0.00024331    -0.23280
C563        C  0.52154690  0.87209898  0.01355728     0.19740
C564        C  0.52157165  0.84300249  0.01329558     0.24770
C565        C  0.50041714  0.82830009  0.99952872    -0.23220
C566        C  0.47916236  0.84336140  0.98617078     0.19670
F567        F  0.45893619  0.83002730  0.97181478    -0.13180
F568        F  0.45856302  0.88625403  0.97293591    -0.15540
F569        F  0.54185510  0.82926917  0.02731081    -0.15550
F570        F  0.54194966  0.88556910  0.02755976    -0.13180
loop_ 
_geom_bond_atom_site_label_1 
_geom_bond_atom_site_label_2 
_geom_bond_distance 
_geom_bond_site_symmetry_2 
_ccdc_geom_bond_type 
N1            N2   1.318       .  A
N1            C5   1.352       .  A
N1           Cu9   2.082   1_554  S
N2            C3   1.336       .  A
N2           Cu8   2.047       .  S
C3            C4   1.381       .  A
C3            H6   1.082       .  S
C4            C5   1.392       .  A
C4          C555   1.483       .  S
C5            H7   1.082       .  S
Cu8          N11   2.047       .  S
Cu9          N19   2.086       .  S
Cu10         N12   2.087       .  S
Cu10         N18   2.091       .  S
N11          N12   1.318   1_554  A
N11          C15   1.336       .  A
N12          C13   1.353       .  A
C13          C14   1.394       .  A
C13          H16   1.081       .  S
C14          C15   1.382   1_556  A
C14         C545   1.487       .  S
C15          H17   1.081       .  S
N18          N19   1.327       .  A
N18          C22   1.346       .  A
N19          C20   1.344       .  A
C20          C21   1.384       .  A
C20          H23   1.082   1_556  S
C21          C22   1.385       .  A
C21         C565   1.483       .  S
C22          H24   1.082       .  S
N25          N26   1.320       .  A
N25          C29   1.351   1_554  A
N25         Cu33   2.080   1_554  S
N26          C27   1.339       .  A
N26         Cu32   2.058       .  S
C27          C28   1.382       .  A
C27          H30   1.082       .  S
C28          C29   1.389   1_554  A
C28         C542   1.480   1_554  S
C29          H31   1.082       .  S
Cu32         N35   2.057       .  S
Cu33         N43   2.083       .  S
Cu34         N36   2.079   1_556  S
Cu34         N42   2.082       .  S
N35          N36   1.319       .  A
N35          C39   1.338       .  A
N36          C37   1.351   1_554  A
C37          C38   1.390   1_556  A
C37          H40   1.082       .  S
C38          C39   1.382       .  A
C38         C525   1.482   1_554  S
C39          H41   1.082       .  S
N42          N43   1.326       .  A
N42          C46   1.345       .  A
N43          C44   1.345       .  A
C44          C45   1.383       .  A
C44          H47   1.081       .  S
C45          C46   1.383       .  A
C45         C535   1.479       .  S
C46          H48   1.082       .  S
N49          N50   1.319       .  A
N49          C53   1.351       .  A
N49         Cu57   2.077   1_554  S
N50          C51   1.338       .  A
N50         Cu56   2.053       .  S
C51          C52   1.382       .  A
C51          H54   1.081       .  S
C52          C53   1.390       .  A
C52         C505   1.480       .  S
C53          H55   1.081   1_554  S
Cu56         N59   2.053       .  S
Cu57         N67   2.081       .  S
Cu58         N60   2.085       .  S
Cu58         N66   2.088       .  S
N59          N60   1.320   1_554  A
N59          C63   1.337       .  A
N60          C61   1.352       .  A
C61          C62   1.392       .  A
C61          H64   1.082       .  S
C62          C63   1.382   1_556  A
C62         C522   1.484       .  S
C63          H65   1.082       .  S
N66          N67   1.325       .  A
N66          C70   1.345       .  A
N67          C68   1.343       .  A
C68          C69   1.387       .  A
C68          H71   1.081   1_556  S
C69          C70   1.389       .  A
C69         C515   1.490       .  S
C70          H72   1.081       .  S
N73          N74   1.320       .  A
N73          C77   1.351       .  A
N73         Cu81   2.081       .  S
N74          C75   1.338       .  A
N74         Cu80   2.057       .  S
C75          C76   1.382       .  A
C75          H78   1.083       .  S
C76          C77   1.389       .  A
C76         C552   1.480   1_556  S
C77          H79   1.082   1_556  S
Cu80         N83   2.057       .  S
Cu81         N91   2.083       .  S
Cu82         N84   2.077       .  S
Cu82         N90   2.079       .  S
N83          N84   1.320       .  A
N83          C87   1.339       .  A
N84          C85   1.350       .  A
C85          C86   1.387       .  A
C85          H88   1.080   1_556  S
C86          C87   1.380       .  A
C86         C502   1.473   1_556  S
C87          H89   1.081       .  S
N90          N91   1.324       .  A
N90          C94   1.344   1_556  A
N91          C92   1.345       .  A
C92          C93   1.388       .  A
C92          H95   1.081       .  S
C93          C94   1.387   1_556  A
C93         C492   1.488   1_556  S
C94          H96   1.079       .  S
N97          N98   1.320       .  A
N97         C101   1.351       .  A
N97        Cu105   2.079       .  S
N98          C99   1.339       .  A
N98        Cu104   2.054       .  S
C99         C100   1.379       .  A
C99         H102   1.082       .  S
C100        C101   1.388       .  A
C100        C462   1.474   1_655  S
C101        H103   1.081       .  S
Cu104       N107   2.054       .  S
Cu105       N115   2.082       .  S
Cu106       N108   2.081       .  S
Cu106       N114   2.084       .  S
N107        N108   1.320       .  A
N107        C111   1.338       .  A
N108        C109   1.351   1_655  A
C109        C110   1.390   1_455  A
C109        H112   1.082       .  S
C110        C111   1.381       .  A
C110        C472   1.480   1_655  S
C111        H113   1.082       .  S
N114        N115   1.325       .  A
N114        C118   1.345       .  A
N115        C116   1.344       .  A
C116        C117   1.384       .  A
C116        H119   1.081       .  S
C117        C118   1.385       .  A
C117        C482   1.482       .  S
C118        H120   1.081   1_655  S
N121        N122   1.319       .  A
N121        C125   1.350   1_455  A
N121       Cu129   2.078   1_455  S
N122        C123   1.338       .  A
N122       Cu128   2.054       .  S
C123        C124   1.381       .  A
C123        H126   1.082       .  S
C124        C125   1.389   1_455  A
C124        C465   1.479       .  S
C125        H127   1.081       .  S
Cu128       N131   2.054       .  S
Cu129       N139   2.081       .  S
Cu130       N132   2.081       .  S
Cu130       N138   2.084       .  S
N131        N132   1.320   1_455  A
N131        C135   1.338       .  A
N132        C133   1.351       .  A
C133        C134   1.389       .  A
C133        H136   1.082       .  S
C134        C135   1.381   1_655  A
C134        C442   1.479       .  S
C135        H137   1.082       .  S
N138        N139   1.325       .  A
N138        C142   1.345       .  A
N139        C140   1.344       .  A
C140        C141   1.386       .  A
C140        H143   1.081       .  S
C141        C142   1.387       .  A
C141        C452   1.486       .  S
C142        H144   1.081       .  S
N145        N146   1.320       .  A
N145        C149   1.351       .  A
N145       Cu153   2.082       .  S
N146        C147   1.338       .  A
N146       Cu152   2.057       .  S
C147        C148   1.382   1_455  A
C147        H150   1.082       .  S
C148        C149   1.390   1_655  A
C148        C445   1.482       .  S
C149        H151   1.082   1_455  S
Cu152       N155   2.057       .  S
Cu153       N163   2.085       .  S
Cu154       N156   2.076   1_655  S
Cu154       N162   2.078       .  S
N155        N156   1.320       .  A
N155        C159   1.340       .  A
N156        C157   1.349   1_455  A
C157        C158   1.385   1_655  A
C157        H160   1.081       .  S
C158        C159   1.379       .  A
C158        C425   1.469   1_455  S
C159        H161   1.081       .  S
N162        N163   1.323   1_655  A
N162        C166   1.343       .  A
N163        C164   1.345       .  A
C164        C165   1.390   1_455  A
C164        H167   1.080       .  S
C165        C166   1.388       .  A
C165        C435   1.492       .  S
C166        H168   1.080       .  S
N169        N170   1.321       .  A
N169        C173   1.351   1_655  A
N169       Cu177   2.080   1_655  S
N170        C171   1.338       .  A
N170       Cu176   2.058       .  S
C171        C172   1.381       .  A
C171        H174   1.082       .  S
C172        C173   1.388   1_655  A
C172        C475   1.479   1_655  S
C173        H175   1.082       .  S
Cu176       N179   2.058       .  S
Cu177       N187   2.082       .  S
Cu178       N180   2.075   1_455  S
Cu178       N186   2.078       .  S
N179        N180   1.320       .  A
N179        C183   1.340       .  A
N180        C181   1.349   1_655  A
C181        C182   1.386   1_455  A
C181        H184   1.082       .  S
C182        C183   1.380       .  A
C182        C422   1.474       .  S
C183        H185   1.082       .  S
N186        N187   1.324       .  A
N186        C190   1.343       .  A
N187        C188   1.345       .  A
C188        C189   1.387       .  A
C188        H191   1.081       .  S
C189        C190   1.386       .  A
C189        C412   1.487       .  S
C190        H192   1.081       .  S
N193        N194   1.318       .  A
N193        C197   1.352       .  A
N193       Cu201   2.086       .  S
N194        C195   1.335       .  A
N194       Cu200   2.044       .  S
C195        C196   1.382       .  A
C195        H198   1.081       .  S
C196        C197   1.394       .  A
C196        C392   1.487       .  S
C197        H199   1.082       .  S
Cu200       N203   2.044       .  S
Cu201       N211   2.090       .  S
Cu202       N204   2.086       .  S
Cu202       N210   2.090       .  S
N203        N204   1.317       .  A
N203        C207   1.335       .  A
N204        C205   1.353       .  A
C205        C206   1.394       .  A
C205        H208   1.081       .  S
C206        C207   1.382       .  A
C206        C382   1.487       .  S
C207        H209   1.080       .  S
N210        N211   1.326       .  A
N210        C214   1.344       .  A
N211        C212   1.345       .  A
C212        C213   1.388       .  A
C212        H215   1.081       .  S
C213        C214   1.387       .  A
C213        C402   1.491       .  S
C214        H216   1.081       .  S
N217        N218   1.320       .  A
N217        C221   1.351       .  A
N217       Cu225   2.081       .  S
N218        C219   1.338       .  A
N218       Cu224   2.056       .  S
C219        C220   1.381       .  A
C219        H222   1.082       .  S
C220        C221   1.389       .  A
C220        C385   1.478       .  S
C221        H223   1.082       .  S
Cu224       N227   2.055       .  S
Cu225       N235   2.083       .  S
Cu226       N228   2.081       .  S
Cu226       N234   2.084       .  S
N227        N228   1.319       .  A
N227        C231   1.338       .  A
N228        C229   1.351       .  A
C229        C230   1.390       .  A
C229        H232   1.082       .  S
C230        C231   1.382       .  A
C230        C362   1.482       .  S
C231        H233   1.082       .  S
N234        N235   1.327       .  A
N234        C238   1.346       .  A
N235        C236   1.345       .  A
C236        C237   1.380       .  A
C236        H239   1.081       .  S
C237        C238   1.380       .  A
C237        C372   1.470       .  S
C238        H240   1.082       .  S
N241        N242   1.320       .  A
N241        C245   1.350       .  A
N241       Cu249   2.078       .  S
N242        C243   1.339       .  A
N242       Cu248   2.058       .  S
C243        C244   1.380       .  A
C243        H246   1.081       .  S
C244        C245   1.387       .  A
C244        C342   1.475       .  S
C245        H247   1.081       .  S
Cu248       N251   2.057       .  S
Cu249       N259   2.080       .  S
Cu250       N252   2.082       .  S
Cu250       N258   2.085       .  S
N251        N252   1.320       .  A
N251        C255   1.338       .  A
N252        C253   1.351       .  A
C253        C254   1.391       .  A
C253        H256   1.082       .  S
C254        C255   1.383       .  A
C254        C365   1.484       .  S
C255        H257   1.082       .  S
N258        N259   1.324       .  A
N258        C262   1.345       .  A
N259        C260   1.343       .  A
C260        C261   1.388       .  A
C260        H263   1.080       .  S
C261        C262   1.389       .  A
C261        C355   1.492       .  S
C262        H264   1.081       .  S
N265        N266   1.318       .  A
N265        C269   1.352       .  A
N265       Cu273   2.084       .  S
N266        C267   1.336       .  A
N266       Cu272   2.048       .  S
C267        C268   1.382       .  A
C267        H270   1.081       .  S
C268        C269   1.393       .  A
C268        C345   1.484       .  S
C269        H271   1.081       .  S
Cu272       N275   2.048       .  S
Cu273       N283   2.087       .  S
Cu274       N276   2.083       .  S
Cu274       N282   2.087       .  S
N275        N276   1.319       .  A
N275        C279   1.336       .  A
N276        C277   1.352       .  A
C277        C278   1.392       .  A
C277        H280   1.082       .  S
C278        C279   1.381       .  A
C278        C395   1.483       .  S
C279        H281   1.082       .  S
N282        N283   1.326       .  A
N282        C286   1.345       .  A
N283        C284   1.345       .  A
C284        C285   1.386       .  A
C284        H287   1.081       .  S
C285        C286   1.385       .  A
C285        C332   1.485       .  S
C286        H288   1.081       .  S
O289       Cu297   2.009   1_545  S
O289        C299   1.278       .  A
O290       Cu297   2.005       .  S
O290        C300   1.278       .  A
O291       Cu297   2.010   1_455  S
O291        C301   1.278       .  A
O292       Cu297   2.005       .  S
O292        C302   1.276       .  A
O293       Cu298   2.011       .  S
O293        C302   1.277       .  A
O294       Cu298   2.006   1_455  S
O294        C301   1.278       .  A
O295       Cu298   2.009       .  S
O295        C300   1.278       .  A
O296       Cu298   2.005   1_545  S
O296        C299   1.278       .  A
Cu297      Cu298   2.372       .  S
C299        C415   1.482       .  S
C300        C455   1.480       .  S
C301        C335   1.481       .  S
C302        C375   1.467       .  S
O303       Cu311   2.006   1_545  S
O303        C313   1.278       .  A
O304       Cu311   2.009       .  S
O304        C314   1.278       .  A
O305       Cu311   2.010       .  S
O305        C315   1.278       .  A
O306       Cu311   2.007   1_556  S
O306        C316   1.278       .  A
O307       Cu312   2.011   1_556  S
O307        C316   1.278       .  A
O308       Cu312   2.006       .  S
O308        C315   1.278       .  A
O309       Cu312   2.007       .  S
O309        C314   1.278       .  A
O310       Cu312   2.010   1_545  S
O310        C313   1.278       .  A
Cu311      Cu312   2.369       .  S
C313        C512   1.485   1_554  S
C314        C562   1.479       .  S
C315        C352   1.486       .  S
C316        C405   1.485       .  S
O317       Cu325   2.010   1_554  S
O317        C327   1.278       .  A
O318       Cu325   2.006   1_455  S
O318        C328   1.278       .  A
O319       Cu325   2.006       .  S
O319        C329   1.278       .  A
O320       Cu325   2.004   1_454  S
O320        C330   1.277       .  A
O321       Cu326   2.009   1_456  S
O321        C330   1.278   1_556  A
O322       Cu326   2.007       .  S
O322        C329   1.278   1_554  A
O323       Cu326   2.009   1_556  S
O323        C328   1.278   1_655  A
O324       Cu326   2.005   1_455  S
O324        C327   1.278   1_455  A
Cu325      Cu326   2.369   1_556  S
C327        C432   1.487       .  S
C328        C485   1.480       .  S
C329        C532   1.475       .  S
C330        C495   1.483       .  S
C331        C332   1.409       .  A
C331        C336   1.399       .  A
C331        F338   1.357       .  S
C332        C333   1.409       .  A
C333        C334   1.399       .  A
C333        F340   1.357   1_565  S
C334        C335   1.407       .  A
C334        F339   1.358       .  S
C335        C336   1.407       .  A
C336        F337   1.358       .  S
C341        C342   1.406       .  A
C341        C346   1.406       .  A
C341        F348   1.357   1_565  S
C342        C343   1.402       .  A
C343        C344   1.392       .  A
C343        F350   1.358       .  S
C344        C345   1.409       .  A
C344        F349   1.358       .  S
C345        C346   1.410       .  A
C346        F347   1.357   1_565  S
C351        C352   1.408       .  A
C351        C356   1.398       .  A
C351        F358   1.358       .  S
C352        C353   1.408       .  A
C353        C354   1.399       .  A
C353        F360   1.358       .  S
C354        C355   1.410       .  A
C354        F359   1.356       .  S
C355        C356   1.411       .  A
C356        F357   1.356       .  S
C361        C362   1.406       .  A
C361        C366   1.392       .  A
C361        F368   1.358       .  S
C362        C363   1.408       .  A
C363        C364   1.406       .  A
C363        F370   1.357       .  S
C364        C365   1.409       .  A
C364        F369   1.357       .  S
C365        C366   1.407       .  A
C366        F367   1.358       .  S
C371        C372   1.405       .  A
C371        C376   1.400       .  A
C371        F378   1.358   1_565  S
C372        C373   1.404       .  A
C373        C374   1.399       .  A
C373        F380   1.358       .  S
C374        C375   1.404       .  A
C374        F379   1.358       .  S
C375        C376   1.403       .  A
C376        F377   1.358   1_565  S
C381        C382   1.409       .  A
C381        C386   1.391       .  A
C381        F388   1.358       .  S
C382        C383   1.410       .  A
C383        C384   1.407       .  A
C383        F390   1.357       .  S
C384        C385   1.406       .  A
C384        F389   1.357       .  S
C385        C386   1.403       .  A
C386        F387   1.358       .  S
C391        C392   1.410       .  A
C391        C396   1.408       .  A
C391        F398   1.357       .  S
C392        C393   1.408       .  A
C393        C394   1.390       .  A
C393        F400   1.358   1_565  S
C394        C395   1.405       .  A
C394        F399   1.358   1_565  S
C395        C396   1.408       .  A
C396        F397   1.357       .  S
C401        C402   1.410       .  A
C401        C406   1.399       .  A
C401        F408   1.357       .  S
C402        C403   1.410       .  A
C403        C404   1.399       .  A
C403        F410   1.357       .  S
C404        C405   1.408       .  A
C404        F409   1.358       .  S
C405        C406   1.407       .  A
C406        F407   1.358       .  S
C411        C412   1.409       .  A
C411        C416   1.398       .  A
C411        F418   1.357       .  S
C412        C413   1.409   1_455  A
C413        C414   1.399       .  A
C413        F420   1.357       .  S
C414        C415   1.407       .  A
C414        F419   1.358       .  S
C415        C416   1.407   1_655  A
C416        F417   1.358       .  S
C421        C422   1.407   1_455  A
C421        C426   1.403       .  A
C421        F428   1.358       .  S
C422        C423   1.405       .  A
C423        C424   1.395       .  A
C423        F430   1.358       .  S
C424        C425   1.402       .  A
C424        F429   1.358       .  S
C425        C426   1.405   1_655  A
C426        F427   1.358       .  S
C431        C432   1.408   1_455  A
C431        C436   1.398       .  A
C431        F438   1.358       .  S
C432        C433   1.408       .  A
C433        C434   1.399       .  A
C433        F440   1.358       .  S
C434        C435   1.411       .  A
C434        F439   1.356       .  S
C435        C436   1.411   1_655  A
C436        F437   1.356       .  S
C441        C442   1.407   1_455  A
C441        C446   1.406       .  A
C441        F448   1.357       .  S
C442        C443   1.405       .  A
C443        C444   1.391       .  A
C443        F450   1.358       .  S
C444        C445   1.406       .  A
C444        F449   1.358       .  S
C445        C446   1.409   1_655  A
C446        F447   1.357       .  S
C451        C452   1.409       .  A
C451        C456   1.398       .  A
C451        F458   1.357       .  S
C452        C453   1.409   1_655  A
C453        C454   1.399       .  A
C453        F460   1.357       .  S
C454        C455   1.407   1_455  A
C454        F459   1.358       .  S
C455        C456   1.406       .  A
C456        F457   1.358       .  S
C461        C462   1.406   1_655  A
C461        C466   1.405       .  A
C461        F468   1.358       .  S
C462        C463   1.403       .  A
C463        C464   1.393       .  A
C463        F470   1.358       .  S
C464        C465   1.406       .  A
C464        F469   1.358       .  S
C465        C466   1.408   1_455  A
C466        F467   1.357       .  S
C471        C472   1.406       .  A
C471        C476   1.392       .  A
C471        F478   1.358       .  S
C472        C473   1.408   1_455  A
C473        C474   1.406       .  A
C473        F480   1.357       .  S
C474        C475   1.407   1_655  A
C474        F479   1.357       .  S
C475        C476   1.405       .  A
C476        F477   1.358       .  S
C481        C482   1.408   1_455  A
C481        C486   1.398       .  A
C481        F488   1.357       .  S
C482        C483   1.408       .  A
C483        C484   1.399       .  A
C483        F490   1.357       .  S
C484        C485   1.407   1_655  A
C484        F489   1.358       .  S
C485        C486   1.407       .  A
C486        F487   1.358       .  S
C491        C492   1.410   1_556  A
C491        C496   1.398       .  A
C491        F498   1.357       .  S
C492        C493   1.409       .  A
C493        C494   1.398       .  A
C493        F500   1.357       .  S
C494        C495   1.408       .  A
C494        F499   1.358       .  S
C495        C496   1.407   1_554  A
C496        F497   1.358       .  S
C501        C502   1.405   1_556  A
C501        C506   1.405       .  A
C501        F508   1.358       .  S
C502        C503   1.402       .  A
C503        C504   1.393       .  A
C503        F510   1.358       .  S
C504        C505   1.406       .  A
C504        F509   1.358       .  S
C505        C506   1.409   1_554  A
C506        F507   1.357       .  S
C511        C512   1.408   1_554  A
C511        C516   1.400       .  A
C511        F518   1.358       .  S
C512        C513   1.408       .  A
C513        C514   1.398       .  A
C513        F520   1.358       .  S
C514        C515   1.410       .  A
C514        F519   1.357       .  S
C515        C516   1.410   1_556  A
C516        F517   1.357       .  S
C521        C522   1.409   1_554  A
C521        C526   1.407       .  A
C521        F528   1.357       .  S
C522        C523   1.407       .  A
C523        C524   1.391       .  A
C523        F530   1.358       .  S
C524        C525   1.406       .  A
C524        F529   1.358       .  S
C525        C526   1.408   1_556  A
C526        F527   1.357       .  S
C531        C532   1.406   1_554  A
C531        C536   1.399       .  A
C531        F538   1.358       .  S
C532        C533   1.406       .  A
C533        C534   1.398       .  A
C533        F540   1.358       .  S
C534        C535   1.407       .  A
C534        F539   1.358       .  S
C535        C536   1.407   1_556  A
C536        F537   1.358       .  S
C541        C542   1.404       .  A
C541        C546   1.392       .  A
C541        F548   1.358       .  S
C542        C543   1.407   1_556  A
C543        C544   1.407       .  A
C543        F550   1.357       .  S
C544        C545   1.410   1_554  A
C544        F549   1.357       .  S
C545        C546   1.409       .  A
C546        F547   1.358       .  S
C551        C552   1.405       .  A
C551        C556   1.391       .  A
C551        F558   1.358       .  S
C552        C553   1.408   1_554  A
C553        C554   1.407       .  A
C553        F560   1.357       .  S
C554        C555   1.409   1_556  A
C554        F559   1.357       .  S
C555        C556   1.407       .  A
C556        F557   1.358       .  S
C561        C562   1.406   1_556  A
C561        C566   1.399       .  A
C561        F568   1.358       .  S
C562        C563   1.407       .  A
C563        C564   1.399       .  A
C563        F570   1.358       .  S
C564        C565   1.408   1_554  A
C564        F569   1.357       .  S
C565        C566   1.408       .  A
C566        F567   1.357       .  S
