geometry optimzed in LAMMPS
_audit_creation_date              2020-12-01 
_audit_creation_method            'lammps2cif' 
_symmetry_space_group_name_H-M    'P1' 
_symmetry_Int_Tables_number       1 
_symmetry_cell_setting            triclinic 
loop_ 
_symmetry_equiv_pos_as_xyz 
  x,y,z 
_cell_length_a                    53.7392714 
_cell_length_b                    77.46120366974607 
_cell_length_c                    63.18349151859308 
_cell_angle_alpha                 89.88243632421948 
_cell_angle_beta                  89.95281866609965 
_cell_angle_gamma                 90.03705523917306 
loop_ 
_atom_site_label 
_atom_site_type_symbol 
_atom_site_fract_x 
_atom_site_fract_y 
_atom_site_fract_z 
_atom_site_charge 
N1          N  0.69170429  0.11560979  0.50522638    -0.27300
N2          N  0.68131448  0.10875990  0.48825577    -0.35200
C3          C  0.68219483  0.09145880  0.48985655     0.01000
C4          C  0.69385718  0.08715614  0.50871142     0.07100
C5          C  0.69971405  0.10284439  0.51799299    -0.06000
H6          H  0.67460696  0.08270723  0.47823579     0.07700
H7          H  0.70836723  0.10487370  0.53321715     0.08900
Cu8        Cu  0.66464042  0.12317933  0.46445392     0.44200
Cu9        Cu  0.69313864  0.14198631  0.51071385     0.42000
Cu10       Cu  0.65762350  0.16893948  0.47473658     0.43900
N11         N  0.64307556  0.13952632  0.44599137    -0.34700
N12         N  0.63911539  0.15594895  0.45059601    -0.28900
C13         C  0.62104914  0.16207758  0.43788394    -0.05000
C14         C  0.61364940  0.14896514  0.42443732     0.07200
C15         C  0.62808655  0.13489697  0.42993007     0.01000
H16         H  0.61330987  0.17494641  0.43883373     0.08600
H17         H  0.62641253  0.12189481  0.42386890     0.07700
N18         N  0.68019060  0.17862119  0.49871951    -0.36100
N19         N  0.69301257  0.16874911  0.51183466    -0.28300
C20         C  0.70667271  0.17882503  0.52465615    -0.03500
C21         C  0.70245446  0.19598487  0.51937676     0.05100
C22         C  0.68542165  0.19527227  0.50284138     0.03200
H23         H  0.71923714  0.17386322  0.53654534     0.08300
H24         H  0.67780328  0.20597201  0.49399275     0.07100
N25         N  0.83108394  0.40965349  0.59490029    -0.27300
N26         N  0.85035809  0.41582591  0.60540574    -0.35200
C27         C  0.85263768  0.43276509  0.60127117     0.01000
C28         C  0.83387553  0.43759838  0.58742469     0.07100
C29         C  0.82059988  0.42252775  0.58369755    -0.06000
H30         H  0.86701583  0.44089036  0.60790491     0.07700
H31         H  0.80429293  0.42101638  0.57385983     0.08900
Cu32       Cu  0.87215191  0.40115595  0.62556108     0.44200
Cu33       Cu  0.82000177  0.38403240  0.59685714     0.42000
Cu34       Cu  0.85023544  0.35820616  0.63774851     0.43900
N35         N  0.88916888  0.38497074  0.64725290    -0.34700
N36         N  0.88044981  0.36959530  0.65256037    -0.28900
C37         C  0.89544152  0.36258627  0.66729253    -0.05000
C38         C  0.91459906  0.37406008  0.67123441     0.07200
C39         C  0.91009604  0.38807665  0.65823625     0.01000
H40         H  0.89306026  0.34983591  0.67403299     0.08600
H41         H  0.92122231  0.39966706  0.65679835     0.07700
N42         N  0.82440926  0.34854981  0.61647765    -0.36100
N43         N  0.81377789  0.35783784  0.60143622    -0.28300
C44         C  0.79989193  0.34739276  0.58924883    -0.03500
C45         C  0.80186955  0.33062667  0.59689185     0.05100
C46         C  0.81755897  0.33195734  0.61426092     0.03200
H47         H  0.78965312  0.35174809  0.57554254     0.08300
H48         H  0.82436941  0.32160393  0.62416212     0.07100
N49         N  0.69444071  0.90949117  0.59419051    -0.27300
N50         N  0.67565066  0.91577658  0.60519575    -0.35200
C51         C  0.67346043  0.93272451  0.60118327     0.01000
C52         C  0.69184060  0.93751867  0.58689172     0.07100
C53         C  0.70478250  0.92234229  0.58280761    -0.06000
H54         H  0.65950296  0.94085390  0.60836006     0.07700
H55         H  0.72066017  0.92069421  0.57251483     0.08900
Cu56       Cu  0.65455541  0.90136056  0.62605702     0.44200
Cu57       Cu  0.70484544  0.88371577  0.59585779     0.42000
Cu58       Cu  0.67494948  0.85829459  0.63799052     0.43900
N59         N  0.63806113  0.88594484  0.64875210    -0.34700
N60         N  0.64620446  0.87043862  0.65407450    -0.28900
C61         C  0.63144043  0.86398725  0.66940812    -0.05000
C62         C  0.61302126  0.87598581  0.67361920     0.07200
C63         C  0.61776252  0.88969695  0.66023566     0.01000
H64         H  0.63321535  0.85119385  0.67616546     0.08600
H65         H  0.60704300  0.90145220  0.65870467     0.07700
N66         N  0.70011443  0.84842144  0.61619837    -0.36100
N67         N  0.71062541  0.85751462  0.60087814    -0.28300
C68         C  0.72499598  0.84700724  0.58919288    -0.03500
C69         C  0.72355207  0.83042189  0.59748074     0.05100
C70         C  0.70753506  0.83190567  0.61463054     0.03200
H71         H  0.73558111  0.85126256  0.57557548     0.08300
H72         H  0.70139170  0.82175316  0.62519601     0.07100
N73         N  0.83160175  0.61600473  0.50681723    -0.27300
N74         N  0.84337611  0.60932792  0.49043228    -0.35200
C75         C  0.84245100  0.59203984  0.49171342     0.01000
C76         C  0.82944232  0.58748309  0.50987175     0.07100
C77         C  0.82275115  0.60311457  0.51898917    -0.06000
H78         H  0.85136993  0.58354285  0.48051979     0.07700
H79         H  0.81310344  0.60507538  0.53379491     0.08900
Cu80       Cu  0.86293114  0.62382621  0.46849544     0.44200
Cu81       Cu  0.83050412  0.64228898  0.51254371     0.42000
Cu82       Cu  0.87166653  0.66899770  0.47945794     0.43900
N83         N  0.88735318  0.63932405  0.45172945    -0.34700
N84         N  0.89187249  0.65565723  0.45641370    -0.28900
C85         C  0.91107671  0.66123153  0.44443847    -0.05000
C86         C  0.91859124  0.64780095  0.43143551     0.07200
C87         C  0.90307740  0.63417714  0.43644913     0.01000
H88         H  0.91915735  0.67400977  0.44531343     0.08600
H89         H  0.90406220  0.62116795  0.43030337     0.07700
N90         N  0.84810255  0.67860983  0.50299552    -0.36100
N91         N  0.83337952  0.66887344  0.51482672    -0.28300
C92         C  0.82037577  0.67899838  0.52805297    -0.03500
C93         C  0.82705510  0.69603959  0.52447247     0.05100
C94         C  0.84474612  0.69524260  0.50844800     0.03200
H95         H  0.80691430  0.67417270  0.53935217     0.08300
H96         H  0.85416337  0.70596430  0.50090397     0.07100
N97         N  0.33546226  0.90838950  0.59025923    -0.27300
N98         N  0.35240129  0.91554600  0.60258629    -0.35200
C99         C  0.35344207  0.93255796  0.59839412     0.01000
C100        C  0.33639346  0.93638618  0.58255482     0.07100
C101        C  0.32536925  0.92064603  0.57779483    -0.06000
H102        H  0.36604539  0.94139790  0.60615155     0.07700
H103        H  0.31095378  0.91822777  0.56625088     0.08900
Cu104      Cu  0.37365716  0.90177535  0.62438438     0.44200
Cu105      Cu  0.32695610  0.88227115  0.59136115     0.42000
Cu106      Cu  0.35801974  0.85687231  0.63246176     0.43900
N107        N  0.39215001  0.88573601  0.64567717    -0.34700
N108        N  0.38565007  0.86953535  0.64937367    -0.28900
C109        C  0.40085232  0.86284648  0.66420345    -0.05000
C110        C  0.41794696  0.87536336  0.66987709     0.07200
C111        C  0.41197475  0.88967078  0.65775624     0.01000
H112        H  0.40013067  0.84964167  0.66980861     0.08600
H113        H  0.42136673  0.90202912  0.65769181     0.07700
N114        N  0.33263366  0.84682731  0.61097742    -0.36100
N115        N  0.32162821  0.85600457  0.59602123    -0.28300
C116        C  0.30710798  0.84554057  0.58443132    -0.03500
C117        C  0.30899430  0.82887292  0.59236864     0.05100
C118        C  0.32539536  0.83026923  0.60925702     0.03200
H119        H  0.29616733  0.84988286  0.57107939     0.08300
H120        H  0.33198222  0.82002583  0.61946813     0.07100
N121        N  0.19728721  0.61441555  0.50389094    -0.27300
N122        N  0.18867668  0.60792110  0.48601853    -0.35200
C123        C  0.19025540  0.59060949  0.48687230     0.01000
C124        C  0.20032827  0.58588579  0.50627509     0.07100
C125        C  0.20461178  0.60142047  0.51656985    -0.06000
H126        H  0.18367919  0.58215024  0.47449392     0.07700
H127        H  0.21157426  0.60322913  0.53245963     0.08900
Cu128      Cu  0.17177748  0.62260309  0.46255033     0.44200
Cu129      Cu  0.19710346  0.64055284  0.51090227     0.42000
Cu130      Cu  0.16015488  0.66714066  0.47596431     0.43900
N131        N  0.14753750  0.63842135  0.44585782    -0.34700
N132        N  0.14207214  0.65436043  0.45168260    -0.28900
C133        C  0.12267868  0.66004831  0.44017501    -0.05000
C134        C  0.11584001  0.64713961  0.42627185     0.07200
C135        C  0.13206824  0.63366059  0.43019533     0.01000
H136        H  0.11368546  0.67242045  0.44230701     0.08600
H137        H  0.13141257  0.62087403  0.42336097     0.07700
N138        N  0.18233789  0.67694666  0.49986486    -0.36100
N139        N  0.19569466  0.66724939  0.51278480    -0.28300
C140        C  0.20894465  0.67753910  0.52566425    -0.03500
C141        C  0.20383259  0.69459147  0.52052527     0.05100
C142        C  0.18680381  0.69365384  0.50409245     0.03200
H143        H  0.22209537  0.67287217  0.53730166     0.08300
H144        H  0.17852936  0.70428339  0.49548981     0.07100
N145        N  0.33039732  0.11501900  0.50128750    -0.27300
N146        N  0.34245049  0.10874933  0.48480422    -0.35200
C147        C  0.34176297  0.09142827  0.48548629     0.01000
C148        C  0.32862349  0.08633752  0.50335400     0.07100
C149        C  0.32164227  0.10175888  0.51296582    -0.06000
H150        H  0.35118461  0.08324049  0.47421471     0.07700
H151        H  0.31154132  0.10330934  0.52762903     0.08900
Cu152      Cu  0.36206927  0.12386969  0.46359194     0.44200
Cu153      Cu  0.32842603  0.14143630  0.50721372     0.42000
Cu154      Cu  0.37072387  0.16882157  0.47578493     0.43900
N155        N  0.38669613  0.13971744  0.44762206    -0.34700
N156        N  0.39128363  0.15590685  0.45292940    -0.28900
C157        C  0.41037344  0.16182627  0.44113207    -0.05000
C158        C  0.41770885  0.14877397  0.42756499     0.07200
C159        C  0.40228999  0.13499613  0.43206901     0.01000
H160        H  0.41834066  0.17461831  0.44238641     0.08600
H161        H  0.40315274  0.12219188  0.42529904     0.07700
N162        N  0.34482606  0.17813375  0.49734844    -0.36100
N163        N  0.32961950  0.16830344  0.50859966    -0.28300
C164        C  0.31495757  0.17848809  0.52047255    -0.03500
C165        C  0.32110449  0.19562185  0.51655823     0.05100
C166        C  0.34017250  0.19480611  0.50175105     0.03200
H167        H  0.30074492  0.17363865  0.53101043     0.08300
H168        H  0.34998251  0.20547690  0.49452398     0.07100
N169        N  0.19341680  0.40871815  0.59459465    -0.27300
N170        N  0.17538996  0.41524386  0.60634432    -0.35200
C171        C  0.17337902  0.43221769  0.60223404     0.01000
C172        C  0.19092741  0.43667083  0.58706537     0.07100
C173        C  0.20324585  0.42136728  0.58257353    -0.06000
H174        H  0.15988535  0.44062017  0.60965074     0.07700
H175        H  0.21848610  0.41954343  0.57160663     0.08900
Cu176      Cu  0.15413152  0.40085228  0.62741095     0.44200
Cu177      Cu  0.20394174  0.38294562  0.59583230     0.42000
Cu178      Cu  0.17186106  0.35656441  0.63534350     0.43900
N179        N  0.13560914  0.38421836  0.64784952    -0.34700
N180        N  0.14275336  0.36815737  0.65148756    -0.28900
C181        C  0.12709585  0.36086353  0.66554471    -0.05000
C182        C  0.10907630  0.37286928  0.67074839     0.07200
C183        C  0.11497863  0.38749390  0.65920645     0.01000
H184        H  0.12819998  0.34761001  0.67092617     0.08600
H185        H  0.10497359  0.39960981  0.65900320     0.07700
N186        N  0.19838178  0.34719303  0.61447396    -0.36100
N187        N  0.21000079  0.35669628  0.60014498    -0.28300
C188        C  0.22499103  0.34645794  0.58863492    -0.03500
C189        C  0.22262789  0.32963280  0.59596503     0.05100
C190        C  0.20557569  0.33066784  0.61239838     0.03200
H191        H  0.23615053  0.35093024  0.57549224     0.08300
H192        H  0.19856635  0.32020338  0.62204077     0.07100
N193        N  0.05465346  0.64906719  0.40192190    -0.27300
N194        N  0.06579311  0.63777130  0.38942037    -0.35200
C195        C  0.08955935  0.63589041  0.39563811     0.01000
C196        C  0.09367307  0.64665655  0.41268253     0.07100
C197        C  0.07121851  0.65489535  0.41619293    -0.06000
H198        H  0.10264682  0.62691128  0.38867862     0.07700
H199        H  0.06674022  0.66348399  0.42913829     0.08900
Cu200      Cu  0.04809748  0.62465058  0.36513464     0.44200
Cu201      Cu  0.01643177  0.65326895  0.40192374     0.42000
Cu202      Cu  0.98159565  0.62542146  0.36610778     0.43900
N203        N  0.02650970  0.61465367  0.34088576    -0.34700
N204        N  0.00192063  0.61499507  0.34103784    -0.28900
C205        C  0.99349395  0.60854461  0.32257654    -0.05000
C206        C  0.01380399  0.60397343  0.31024520     0.07200
C207        C  0.03440141  0.60799021  0.32241680     0.01000
H208        H  0.97405928  0.60759919  0.31828393     0.08600
H209        H  0.05374453  0.60657308  0.31799696     0.07700
N210        N  0.96596094  0.63832667  0.39186975    -0.36100
N211        N  0.97820690  0.64935747  0.40398978    -0.28300
C212        C  0.96282164  0.65517979  0.41924297    -0.03500
C213        C  0.93995295  0.64722428  0.41681166     0.05100
C214        C  0.94265440  0.63659434  0.39938411     0.03200
H215        H  0.96840151  0.66359848  0.43204706     0.08300
H216        H  0.92885192  0.62786694  0.39295380     0.07100
N217        N  0.96453296  0.56203090  0.20845058    -0.27300
N218        N  0.97681060  0.54978330  0.19830395    -0.35200
C219        C  0.96178637  0.54258592  0.18379235     0.01000
C220        C  0.93902757  0.55083068  0.18458288     0.07100
C221        C  0.94138566  0.56313100  0.20035074    -0.06000
H222        H  0.96746425  0.53270738  0.17271431     0.07700
H223        H  0.92741035  0.57227460  0.20543752     0.08900
Cu224      Cu  0.01457791  0.54543314  0.20170537     0.44200
Cu225      Cu  0.98042572  0.57647813  0.23277882     0.42000
Cu226      Cu  0.04817965  0.57564980  0.23386041     0.43900
N227        N  0.05265816  0.54894151  0.19963662    -0.34700
N228        N  0.06485039  0.56098468  0.21020036    -0.28900
C229        C  0.08826846  0.56195203  0.20264583    -0.05000
C230        C  0.09087375  0.54978605  0.18675886     0.07200
C231        C  0.06800262  0.54172532  0.18537930     0.01000
H232        H  0.10216563  0.57105668  0.20800821     0.08600
H233        H  0.06241974  0.53212309  0.17390884     0.07700
N234        N  0.02631436  0.58611633  0.25784901    -0.36100
N235        N  0.00169448  0.58645593  0.25752549    -0.28300
C236        C  0.99341444  0.59303022  0.27597141    -0.03500
C237        C  0.01377729  0.59696956  0.28850356     0.05100
C238        C  0.03429659  0.59244565  0.27647118     0.03200
H239        H  0.97399806  0.59445672  0.28012578     0.08300
H240        H  0.05363823  0.59330612  0.28108523     0.07100
N241        N  0.56494119  0.14040009  0.38593758    -0.27300
N242        N  0.55334421  0.15125395  0.39870795    -0.35200
C243        C  0.56943423  0.15683250  0.41350500     0.01000
C244        C  0.59211953  0.14890179  0.41007914     0.07100
C245        C  0.58859763  0.13853772  0.39252831    -0.06000
H246        H  0.56442472  0.16490734  0.42680125     0.07700
H247        H  0.60195386  0.12975060  0.38557208     0.08900
Cu248      Cu  0.51510068  0.15491833  0.39832666     0.44200
Cu249      Cu  0.54739690  0.12755301  0.36123564     0.42000
Cu250      Cu  0.48035053  0.12743170  0.36209072     0.43900
N251        N  0.47693683  0.15106142  0.40003068    -0.34700
N252        N  0.46464313  0.14030047  0.38759935    -0.28900
C253        C  0.44134148  0.13846397  0.39501140    -0.05000
C254        C  0.43876413  0.14870483  0.41275675     0.07200
C255        C  0.46161352  0.15657974  0.41545798     0.01000
H256        H  0.42756823  0.12979585  0.38841582     0.08600
H257        H  0.46726989  0.16462309  0.42859396     0.07700
N258        N  0.50111227  0.11648818  0.33787262    -0.36100
N259        N  0.52571433  0.11652922  0.33761031    -0.28300
C260        C  0.53363685  0.10893059  0.31970316    -0.03500
C261        C  0.51303825  0.10390330  0.30811192     0.05100
C262        C  0.49271942  0.10887539  0.32011834     0.03200
H263        H  0.55297311  0.10742125  0.31532648     0.08300
H264        H  0.47327006  0.10727491  0.31615618     0.07100
N265        N  0.56222093  0.05703855  0.20975949    -0.27300
N266        N  0.54975348  0.04509137  0.19926192    -0.35200
C267        C  0.56455427  0.03832895  0.18425949     0.01000
C268        C  0.58729397  0.04662848  0.18508952     0.07100
C269        C  0.58521264  0.05841516  0.20143233    -0.06000
H270        H  0.55855520  0.02904325  0.17255152     0.07700
H271        H  0.59906739  0.06767943  0.20644644     0.08900
Cu272      Cu  0.51170649  0.04164168  0.20202271     0.44200
Cu273      Cu  0.54637745  0.07159429  0.23385414     0.42000
Cu274      Cu  0.47883970  0.07347257  0.23285839     0.43900
N275        N  0.47409274  0.04668629  0.19872773    -0.34700
N276        N  0.46235100  0.05923748  0.20876776    -0.28900
C277        C  0.43924204  0.06077430  0.20071492    -0.05000
C278        C  0.43632701  0.04842014  0.18510112     0.07200
C279        C  0.45872815  0.03971568  0.18432209     0.01000
H280        H  0.42567562  0.07023178  0.20574835     0.08600
H281        H  0.46394906  0.02966019  0.17332447     0.07700
N282        N  0.50043848  0.08365597  0.25712974    -0.36100
N283        N  0.52503647  0.08300290  0.25744689    -0.28300
C284        C  0.53325506  0.09014294  0.27553953    -0.03500
C285        C  0.51287487  0.09550916  0.28719205     0.05100
C286        C  0.49237687  0.09119096  0.27505068     0.03200
H287        H  0.55263944  0.09114081  0.27997771     0.08300
H288        H  0.47301304  0.09322060  0.27900631     0.07100
N289        N  0.83751440  0.51044298  0.09236319    -0.27300
N290        N  0.85491156  0.50424065  0.10504854    -0.35200
C291        C  0.85674082  0.48710716  0.10215885     0.01000
C292        C  0.83975854  0.48218056  0.08682255     0.07100
C293        C  0.82795521  0.49738027  0.08091349    -0.06000
H294        H  0.86967128  0.47890315  0.11057439     0.07700
H295        H  0.81314613  0.49883246  0.06948174     0.08900
Cu296      Cu  0.87540082  0.51905279  0.12607415     0.44200
Cu297      Cu  0.82674317  0.53625693  0.09213647     0.42000
Cu298      Cu  0.85590904  0.56292582  0.13277183     0.43900
N299        N  0.89256858  0.53597630  0.14685640    -0.34700
N300        N  0.88476761  0.55194224  0.15002838    -0.28900
C301        C  0.89955849  0.55953955  0.16447765    -0.05000
C302        C  0.91771081  0.54783720  0.17042937     0.07200
C303        C  0.91276166  0.53306450  0.15890455     0.01000
H304        H  0.89786048  0.57281500  0.16957560     0.08600
H305        H  0.92318818  0.52111815  0.15911517     0.07700
N306        N  0.82906929  0.57179291  0.11171722    -0.36100
N307        N  0.81862036  0.56225520  0.09684752    -0.28300
C308        C  0.80275589  0.57215801  0.08567377    -0.03500
C309        C  0.80322539  0.58882014  0.09381795     0.05100
C310        C  0.82018386  0.58797779  0.11036671     0.03200
H311        H  0.79199862  0.56752230  0.07240476     0.08300
H312        H  0.82602884  0.59835941  0.12061584     0.07100
N313        N  0.69720959  0.80513689  0.00568313    -0.27300
N314        N  0.68667457  0.81189993  0.98871333    -0.35200
C315        C  0.68923845  0.82913553  0.98922179     0.01000
C316        C  0.70203176  0.83364195  0.00746535     0.07100
C317        C  0.70682283  0.81797763  0.01748283    -0.06000
H318        H  0.68132777  0.83768940  0.97751836     0.07700
H319        H  0.71590201  0.81599918  0.03253316     0.08900
Cu320      Cu  0.66654638  0.79789129  0.96676145     0.44200
Cu321      Cu  0.69632670  0.77879378  0.01236944     0.42000
Cu322      Cu  0.65409146  0.75341077  0.97961005     0.43900
N323        N  0.64189382  0.78270250  0.94991815    -0.34700
N324        N  0.63615466  0.76668937  0.95532392    -0.28900
C325        C  0.61747808  0.76114683  0.94286518    -0.05000
C326        C  0.61148170  0.77424426  0.92882096     0.07200
C327        C  0.62737544  0.78768314  0.93369782     0.01000
H328        H  0.60864866  0.74863251  0.94417264     0.08600
H329        H  0.62744161  0.80047656  0.92678761     0.07700
N330        N  0.67742436  0.74285458  0.00255441    -0.36100
N331        N  0.69276412  0.75204865  0.01438937    -0.28300
C332        C  0.70613674  0.74126910  0.02664020    -0.03500
C333        C  0.69904152  0.72439142  0.02231534     0.05100
C334        C  0.68070645  0.72599577  0.00694836     0.03200
H335        H  0.72055290  0.74547343  0.03738003     0.08300
H336        H  0.67071005  0.71569253  0.99916725     0.07100
N337        N  0.69000619  0.01108647  0.09130921    -0.27300
N338        N  0.67131601  0.00435229  0.10210845    -0.35200
C339        C  0.66973150  0.98741328  0.09769478     0.01000
C340        C  0.68836298  0.98320835  0.08335663     0.07100
C341        C  0.70079740  0.99864047  0.07967973    -0.06000
H342        H  0.65601222  0.97885779  0.10454745     0.07700
H343        H  0.71678952  0.00070922  0.06962240     0.08900
Cu344      Cu  0.64953352  0.01845669  0.12297549     0.44200
Cu345      Cu  0.70027345  0.03680902  0.09337463     0.42000
Cu346      Cu  0.66770000  0.06309692  0.13199334     0.43900
N347        N  0.63239793  0.03456767  0.14476823    -0.34700
N348        N  0.63964154  0.05056421  0.14873860    -0.28900
C349        C  0.62519598  0.05715077  0.16415423    -0.05000
C350        C  0.60789887  0.04477418  0.16993382     0.07200
C351        C  0.61292165  0.03066727  0.15727696     0.01000
H352        H  0.62663777  0.07018373  0.17017672     0.08600
H353        H  0.60314942  0.01844795  0.15715496     0.07700
N354        N  0.69497701  0.07256901  0.11167168    -0.36100
N355        N  0.70678061  0.06293121  0.09766765    -0.28300
C356        C  0.72269956  0.07287622  0.08665699    -0.03500
C357        C  0.72090940  0.08971375  0.09396613     0.05100
C358        C  0.70307909  0.08894706  0.10989870     0.03200
H359        H  0.73446763  0.06808485  0.07408937     0.08300
H360        H  0.69614918  0.09948654  0.11939998     0.07100
N361        N  0.83081807  0.30401177  0.00409109    -0.27300
N362        N  0.84115528  0.31111290  0.98720316    -0.35200
C363        C  0.84052434  0.32838607  0.98924096     0.01000
C364        C  0.82940542  0.33238796  0.00843264     0.07100
C365        C  0.82343095  0.31655404  0.01735511    -0.06000
H366        H  0.84893012  0.33729963  0.97812951     0.07700
H367        H  0.81504295  0.31422476  0.03265565     0.08900
Cu368      Cu  0.85933609  0.29704608  0.96393827     0.44200
Cu369      Cu  0.82955503  0.27764270  0.00950515     0.42000
Cu370      Cu  0.86986684  0.25191288  0.97676417     0.43900
N371        N  0.88347904  0.28112639  0.94735475    -0.34700
N372        N  0.88845123  0.26502612  0.95293352    -0.28900
C373        C  0.90750143  0.25914964  0.94117183    -0.05000
C374        C  0.91456898  0.27207903  0.92733953     0.07200
C375        C  0.89891476  0.28579721  0.93158378     0.01000
H376        H  0.91590285  0.24653237  0.94288528     0.08600
H377        H  0.89976683  0.29858929  0.92470672     0.07700
N378        N  0.84739471  0.24164550  0.00026402    -0.36100
N379        N  0.83248483  0.25106434  0.01217674    -0.28300
C380        C  0.81976429  0.24059928  0.02528704    -0.03500
C381        C  0.82693264  0.22367330  0.02144829     0.05100
C382        C  0.84455971  0.22492164  0.00543664     0.03200
H383        H  0.80589010  0.24506652  0.03639568     0.08300
H384        H  0.85442513  0.21450217  0.99779152     0.07100
N385        N  0.06267959  0.27904876  0.88634984    -0.27300
N386        N  0.05104499  0.26842415  0.89946142    -0.35200
C387        C  0.06728832  0.26286191  0.91418023     0.01000
C388        C  0.09006001  0.27058779  0.91031192     0.07100
C389        C  0.08645593  0.28077020  0.89260365    -0.06000
H390        H  0.06235298  0.25498772  0.92771939     0.07700
H391        H  0.09983795  0.28940570  0.88533713     0.08900
Cu392      Cu  0.01266447  0.26506848  0.89961375     0.44200
Cu393      Cu  0.04542407  0.29205683  0.86168328     0.42000
Cu394      Cu  0.97873463  0.29193119  0.86221541     0.43900
N395        N  0.97449434  0.26926232  0.90095549    -0.34700
N396        N  0.96252589  0.27978468  0.88796576    -0.28900
C397        C  0.93911218  0.28192137  0.89496851    -0.05000
C398        C  0.93609178  0.27210351  0.91303986     0.07200
C399        C  0.95880456  0.26417312  0.91636626     0.01000
H400        H  0.92553170  0.29043113  0.88778054     0.08600
H401        H  0.96405812  0.25629985  0.92981195     0.07700
N402        N  0.99943083  0.30311975  0.83819903    -0.36100
N403        N  0.02401867  0.30327539  0.83808974    -0.28300
C404        C  0.03198365  0.31106468  0.82029174    -0.03500
C405        C  0.01139157  0.31598605  0.80862412     0.05100
C406        C  0.99105137  0.31078271  0.82046149     0.03200
H407        H  0.05133075  0.31270485  0.81600257     0.08300
H408        H  0.97161175  0.31218553  0.81635898     0.07100
N409        N  0.06133473  0.36001685  0.70860451    -0.27300
N410        N  0.04955692  0.37233306  0.69813240    -0.35200
C411        C  0.06494794  0.37905105  0.68349257     0.01000
C412        C  0.08737224  0.37037992  0.68460304     0.07100
C413        C  0.08444985  0.35835218  0.70063681    -0.06000
H414        H  0.05975320  0.38889308  0.67215793     0.07700
H415        H  0.09803433  0.34903341  0.70603931     0.08900
Cu416      Cu  0.01185436  0.37710010  0.70132723     0.44200
Cu417      Cu  0.04495776  0.34617138  0.73308162     0.42000
Cu418      Cu  0.97775767  0.34608855  0.73301971     0.43900
N419        N  0.97395565  0.37290522  0.69865237    -0.34700
N420        N  0.96186263  0.36065252  0.70902605    -0.28900
C421        C  0.93867510  0.35936617  0.70117122    -0.05000
C422        C  0.93606134  0.37151426  0.68526373     0.07200
C423        C  0.95870645  0.37991906  0.68415371     0.01000
H424        H  0.92491931  0.35009344  0.70642320     0.08600
H425        H  0.96419044  0.38969658  0.67281988     0.07700
N426        N  0.99895243  0.33576167  0.75734245    -0.36100
N427        N  0.02355634  0.33591864  0.75740568    -0.28300
C428        C  0.03171294  0.32900057  0.77565853    -0.03500
C429        C  0.01126535  0.32423600  0.78762767     0.05100
C430        C  0.99078858  0.32870838  0.77554996     0.03200
H431        H  0.05110473  0.32763649  0.77991177     0.08300
H432        H  0.97139448  0.32709194  0.77971716     0.07100
N433        N  0.19470428  0.51014128  0.09580705    -0.27300
N434        N  0.17538756  0.50436044  0.10666036    -0.35200
C435        C  0.17207032  0.48751966  0.10244891     0.01000
C436        C  0.19016044  0.48222187  0.08816924     0.07100
C437        C  0.20417264  0.49703616  0.08432769    -0.06000
H438        H  0.15746672  0.47978046  0.10944553     0.07700
H439        H  0.22014927  0.49827072  0.07404016     0.08900
Cu440      Cu  0.15447495  0.51931566  0.12724905     0.44200
Cu441      Cu  0.20710469  0.53568518  0.09759132     0.42000
Cu442      Cu  0.17535901  0.56263079  0.13680422     0.43900
N443        N  0.13742992  0.53579923  0.14863332    -0.34700
N444        N  0.14564341  0.55151541  0.15280403    -0.28900
C445        C  0.13084499  0.55875542  0.16752356    -0.05000
C446        C  0.11230956  0.54706673  0.17265578     0.07200
C447        C  0.11700642  0.53269087  0.16034356     0.01000
H448        H  0.13287658  0.57178751  0.17342698     0.08600
H449        H  0.10628016  0.52087094  0.15981714     0.07700
N450        N  0.20317261  0.57146910  0.11670533    -0.36100
N451        N  0.21463702  0.56186217  0.10243986    -0.28300
C452        C  0.23030961  0.57195646  0.09126365    -0.03500
C453        C  0.22855990  0.58879425  0.09874431     0.05100
C454        C  0.21118293  0.58785524  0.11496378     0.03200
H455        H  0.24140104  0.56741329  0.07818645     0.08300
H456        H  0.20419998  0.59835187  0.12452638     0.07100
N457        N  0.32763655  0.80425158  0.00031757    -0.27300
N458        N  0.33991038  0.81097494  0.98419029    -0.35200
C459        C  0.33911273  0.82826660  0.98550440     0.01000
C460        C  0.32565681  0.83278383  0.00341379     0.07100
C461        C  0.31858585  0.81711498  0.01234692    -0.06000
H462        H  0.34888410  0.83680553  0.97479622     0.07700
H463        H  0.30853249  0.81509784  0.02695808     0.08900
Cu464      Cu  0.36036902  0.79641967  0.96303252     0.44200
Cu465      Cu  0.32680955  0.77793507  0.00629453     0.42000
Cu466      Cu  0.37227774  0.75196435  0.97703548     0.43900
N467        N  0.38575503  0.78097354  0.94742559    -0.34700
N468        N  0.39145321  0.76506857  0.95330549    -0.28900
C469        C  0.41088970  0.75956295  0.94165278    -0.05000
C470        C  0.41736173  0.77258042  0.92764358     0.07200
C471        C  0.40100209  0.78590150  0.93168657     0.01000
H472        H  0.41981532  0.74712645  0.94343114     0.08600
H473        H  0.40105427  0.79861131  0.92454876     0.07700
N474        N  0.34744348  0.74203673  0.99925708    -0.36100
N475        N  0.33090147  0.75144345  0.00956810    -0.28300
C476        C  0.31699249  0.74103828  0.02184652    -0.03500
C477        C  0.32500101  0.72414799  0.01918209     0.05100
C478        C  0.34443796  0.72536488  0.00472995     0.03200
H479        H  0.30196526  0.74555215  0.03170691     0.08300
H480        H  0.35529723  0.71491875  0.99818642     0.07100
N481        N  0.33854878  0.01009927  0.08943466    -0.27300
N482        N  0.35450004  0.00328722  0.10296913    -0.35200
C483        C  0.35580938  0.98616737  0.09966149     0.01000
C484        C  0.33987452  0.98187560  0.08318751     0.07100
C485        C  0.32930887  0.99748844  0.07711634    -0.06000
H486        H  0.36751412  0.97756248  0.10872937     0.07700
H487        H  0.31564556  0.99961918  0.06485695     0.08900
Cu488      Cu  0.37345906  0.01751737  0.12560881     0.44200
Cu489      Cu  0.32940922  0.03617239  0.08889145     0.42000
Cu490      Cu  0.35561774  0.06207503  0.13154325     0.43900
N491        N  0.38984547  0.03419289  0.14716265    -0.34700
N492        N  0.38263390  0.05033203  0.15006105    -0.28900
C493        C  0.39735059  0.05771890  0.16472778    -0.05000
C494        C  0.41485861  0.04569428  0.17107511     0.07200
C495        C  0.40957560  0.03096067  0.15960953     0.01000
H496        H  0.39628346  0.07111507  0.16948532     0.08600
H497        H  0.41967983  0.01888762  0.15991695     0.07700
N498        N  0.33191246  0.07166739  0.10842997    -0.36100
N499        N  0.32257325  0.06239550  0.09280249    -0.28300
C500        C  0.30834650  0.07265393  0.08057287    -0.11500
C501        C  0.30871409  0.08926155  0.08886605     0.05100
C502        C  0.32395208  0.08803953  0.10654260     0.03200
H503        H  0.29849512  0.06823352  0.06671526     0.08300
H504        H  0.32897007  0.09820885  0.11738502     0.07100
N505        N  0.19496016  0.30438383  0.00125800    -0.27300
N506        N  0.18328968  0.31132499  0.98493215    -0.35200
C507        C  0.18331510  0.32861517  0.98707210     0.01000
C508        C  0.19551430  0.33284086  0.00573446     0.07100
C509        C  0.20271043  0.31706163  0.01421319    -0.06000
H510        H  0.17398843  0.33736445  0.97634389     0.07700
H511        H  0.21224526  0.31484370  0.02901794     0.08900
Cu512      Cu  0.16496975  0.29681665  0.96205804     0.44200
Cu513      Cu  0.19747352  0.27790902  0.00633023     0.42000
Cu514      Cu  0.15745589  0.25120115  0.97376108     0.43900
N515        N  0.14212337  0.28032346  0.94487799    -0.34700
N516        N  0.13812774  0.26398777  0.95000983    -0.28900
C517        C  0.11953848  0.25774601  0.93796605    -0.05000
C518        C  0.11180785  0.27069314  0.92439289     0.07200
C519        C  0.12658478  0.28477903  0.92911435     0.01000
H520        H  0.11179682  0.24489407  0.93938510     0.08600
H521        H  0.12492708  0.29766938  0.92265099     0.07700
N522        N  0.18070062  0.24147626  0.99714626    -0.36100
N523        N  0.19543420  0.25117583  0.00890399    -0.28300
C524        C  0.20873836  0.24091552  0.02183273    -0.03500
C525        C  0.20218455  0.22384503  0.01804603     0.05100
C526        C  0.18426402  0.22480506  0.00226604     0.03200
H527        H  0.22243708  0.24564523  0.03294360     0.08300
H528        H  0.17487772  0.21417557  0.99454149     0.07100
N529        N  0.46477863  0.78238719  0.88850892    -0.27300
N530        N  0.47680408  0.77098801  0.90027606    -0.35200
C531        C  0.46129887  0.76495480  0.91531679     0.01000
C532        C  0.43860516  0.77314862  0.91302147     0.07100
C533        C  0.44148104  0.78410632  0.89591585    -0.06000
H534        H  0.46672925  0.75629716  0.92795816     0.07700
H535        H  0.42793075  0.79316901  0.88977682     0.08900
Cu536      Cu  0.51494388  0.76712861  0.89836659     0.44200
Cu537      Cu  0.48088844  0.79614022  0.86396705     0.42000
Cu538      Cu  0.54777005  0.79730123  0.86446506     0.43900
N539        N  0.55288202  0.77179756  0.90035580    -0.34700
N540        N  0.56449394  0.78372016  0.88903461    -0.28900
C541        C  0.58756322  0.78591258  0.89685219    -0.05000
C542        C  0.59067007  0.77469799  0.91371919     0.07200
C543        C  0.56839408  0.76587582  0.91540619     0.01000
H544        H  0.60075635  0.79543759  0.89117802     0.08600
H545        H  0.56313901  0.75686290  0.92773422     0.07700
N546        N  0.52636316  0.80780831  0.84028441    -0.36100
N547        N  0.50177509  0.80736281  0.84012682    -0.28300
C548        C  0.49346134  0.81448264  0.82203250    -0.03500
C549        C  0.51382244  0.81963150  0.81021726     0.05100
C550        C  0.53437775  0.81523318  0.82226462     0.03200
H551        H  0.47405279  0.81555942  0.81768990     0.08300
H552        H  0.55374270  0.81702271  0.81811687     0.07100
N553        N  0.46449629  0.86361615  0.70936163    -0.27300
N554        N  0.47682400  0.87533107  0.69827585    -0.35200
C555        C  0.46182879  0.88175564  0.68315602     0.01000
C556        C  0.43908510  0.87349106  0.68452944     0.07100
C557        C  0.44140825  0.86204440  0.70128384    -0.06000
H558        H  0.46758496  0.89094305  0.67119356     0.07700
H559        H  0.42751722  0.85302926  0.70693516     0.08900
Cu560      Cu  0.51477071  0.87942719  0.70121060     0.44200
Cu561      Cu  0.48042466  0.84999077  0.73440388     0.42000
Cu562      Cu  0.54819070  0.85091613  0.73605247     0.43900
N563        N  0.55289608  0.87563460  0.69976539    -0.34700
N564        N  0.56498872  0.86436646  0.71165163    -0.28900
C565        C  0.58852666  0.86296111  0.70456676    -0.05000
C566        C  0.59133828  0.87403138  0.68754875     0.07200
C567        C  0.56847324  0.88190807  0.68500400     0.01000
H568        H  0.60234049  0.85426932  0.71102995     0.08600
H569        H  0.56310107  0.89073049  0.67252901     0.07700
N570        N  0.52623863  0.83998918  0.75936990    -0.36100
N571        N  0.50163361  0.83955174  0.75890277    -0.28300
C572        C  0.49335906  0.83209109  0.77684882    -0.03500
C573        C  0.51375453  0.82769603  0.78911402     0.05100
C574        C  0.53425208  0.83286685  0.77753076     0.03200
H575        H  0.47394604  0.83025247  0.78078923     0.08300
H576        H  0.55359840  0.83178393  0.78206148     0.07100
C577        C  0.21305012  0.20800684  0.02771686    -0.03400
C578        C  0.23397157  0.20905091  0.04108064    -0.09100
C579        C  0.24484067  0.19408964  0.04938018    -0.16800
C580        C  0.23498368  0.17785152  0.04453309     0.25400
C581        C  0.21394808  0.17665712  0.03158642    -0.18400
C582        C  0.20304206  0.19159642  0.02326236    -0.07400
C583        C  0.24679744  0.16242021  0.05242568    -0.13800
C584        C  0.25714753  0.14958091  0.05875168    -0.13500
C585        C  0.27001331  0.13442687  0.06624305     0.25300
C586        C  0.26688545  0.11856173  0.05601855    -0.18900
C587        C  0.27951800  0.10389119  0.06325945    -0.07400
C588        C  0.29549447  0.10486598  0.08088856    -0.03500
C589        C  0.29854761  0.12094315  0.09096704    -0.08800
C590        C  0.28590071  0.13556780  0.08369685    -0.16400
H591        H  0.24229871  0.22136233  0.04490692     0.11700
H592        H  0.26112986  0.19518590  0.05939482     0.11000
H593        H  0.20610661  0.16416731  0.02775941     0.10900
H594        H  0.18685020  0.19019161  0.01323904     0.11500
H595        H  0.25467662  0.11752093  0.04245328     0.11500
H596        H  0.27660998  0.09183295  0.05504077     0.11500
H597        H  0.31066050  0.12234757  0.10447629     0.11600
H598        H  0.28854396  0.14778696  0.09171104     0.10500
C599        C  0.32240713  0.85039640  0.01232505    -0.03400
C600        C  0.32959252  0.86505160  0.00057705    -0.09100
C601        C  0.32837235  0.88152542  0.00950425    -0.16800
C602        C  0.31985735  0.88366022  0.03025390     0.25400
C603        C  0.31196757  0.86926736  0.04188153    -0.18400
C604        C  0.31317233  0.85275533  0.03298914    -0.07400
C605        C  0.32041846  0.90049999  0.03988372    -0.13800
C606        C  0.32232123  0.91459489  0.04782002    -0.13500
C607        C  0.32602854  0.93139162  0.05706553     0.25300
C608        C  0.31508407  0.94598746  0.04792896    -0.18900
C609        C  0.31948375  0.96237304  0.05643477    -0.07400
C610        C  0.33496067  0.96442594  0.07424882    -0.03500
C611        C  0.34572307  0.94959975  0.08338802    -0.08800
C612        C  0.34128386  0.93323802  0.07484700    -0.16400
H613        H  0.33648845  0.86386504  0.98456894     0.11700
H614        H  0.33449736  0.89257742  0.00032823     0.11000
H615        H  0.30535623  0.87076032  0.05797730     0.10900
H616        H  0.30745270  0.84186790  0.04256506     0.11500
H617        H  0.30330929  0.94473023  0.03410274     0.11500
H618        H  0.31088698  0.97337628  0.04887039     0.11500
H619        H  0.35762435  0.95053552  0.09712144     0.11600
H620        H  0.34991398  0.92203222  0.08203560     0.10500
C621        C  0.19813272  0.35025055  0.01544828    -0.03400
C622        C  0.19442300  0.36528502  0.00329129    -0.09100
C623        C  0.19596135  0.38164306  0.01261921    -0.16800
C624        C  0.20117902  0.38327653  0.03423346     0.25400
C625        C  0.20514417  0.36841201  0.04642319    -0.18400
C626        C  0.20370691  0.35204022  0.03711567    -0.07400
C627        C  0.20171128  0.40015543  0.04397280    -0.13800
C628        C  0.20115244  0.41431981  0.05199917    -0.13500
C629        C  0.19909182  0.43123192  0.06150428     0.25300
C630        C  0.21512154  0.44463491  0.05545773    -0.18900
C631        C  0.21240126  0.46116453  0.06418433    -0.07400
C632        C  0.19354395  0.46457940  0.07911545    -0.03500
C633        C  0.17773048  0.45091158  0.08521919    -0.08800
C634        C  0.18049410  0.43443544  0.07648725    -0.16400
H635        H  0.19032304  0.36445434  0.98657492     0.11700
H636        H  0.19284984  0.39302766  0.00298095     0.11000
H637        H  0.20908255  0.36946063  0.06317819     0.10900
H638        H  0.20646377  0.34081034  0.04705265     0.11500
H639        H  0.22959913  0.44235563  0.04385730     0.11500
H640        H  0.22498694  0.47124201  0.05905436     0.11500
H641        H  0.16305399  0.45284466  0.09666675     0.11600
H642        H  0.16793612  0.42420208  0.08132219     0.10500
C643        C  0.24088067  0.60456683  0.09014259    -0.03400
C644        C  0.23394745  0.62111374  0.09730452    -0.09100
C645        C  0.24480023  0.63595072  0.08861254    -0.16800
C646        C  0.26278171  0.63455416  0.07270074     0.25400
C647        C  0.27005812  0.61820042  0.06563434    -0.18400
C648        C  0.25922578  0.60333019  0.07428984    -0.07400
C649        C  0.27366836  0.64987623  0.06354886    -0.13800
C650        C  0.28270139  0.66273018  0.05588951    -0.13500
C651        C  0.29343072  0.67812202  0.04679162     0.25300
C652        C  0.31481093  0.67706083  0.03421653    -0.18900
C653        C  0.32519813  0.69199122  0.02533946    -0.07400
C654        C  0.31429133  0.70826782  0.02890516    -0.03500
C655        C  0.29282289  0.70915967  0.04166979    -0.08800
C656        C  0.28248897  0.69421715  0.05051585    -0.16400
H657        H  0.21995453  0.62270996  0.10937214     0.11700
H658        H  0.23900930  0.64855535  0.09424745     0.11000
H659        H  0.28399411  0.61694358  0.05339020     0.10900
H660        H  0.26525234  0.59088433  0.06843104     0.11500
H661        H  0.32348964  0.66465600  0.03123664     0.11500
H662        H  0.34169727  0.69070409  0.01574851     0.11500
H663        H  0.28375272  0.72136634  0.04480693     0.11600
H664        H  0.26596164  0.69521424  0.06020537     0.10500
C665        C  0.81681651  0.20771175  0.03133131    -0.03400
C666        C  0.82285811  0.19134414  0.02314400    -0.09100
C667        C  0.81232175  0.17638752  0.03175372    -0.16800
C668        C  0.79565291  0.17753608  0.04870406     0.25400
C669        C  0.78992218  0.19368402  0.05728068    -0.18400
C670        C  0.80042697  0.20866775  0.04870162    -0.07400
C671        C  0.78385106  0.16220685  0.05684811    -0.13800
C672        C  0.77338761  0.14948290  0.06336948    -0.13500
C673        C  0.76038043  0.13447300  0.07107703     0.25300
C674        C  0.74368452  0.13597515  0.08795885    -0.18900
C675        C  0.73089908  0.12145830  0.09543346    -0.07400
C676        C  0.73460423  0.10516167  0.08609677    -0.03500
C677        C  0.75146987  0.10382934  0.06908027    -0.08800
C678        C  0.76422782  0.11837529  0.06164419    -0.16400
H679        H  0.83534404  0.19000466  0.00980264     0.11700
H680        H  0.81689727  0.16395880  0.02499434     0.11000
H681        H  0.77707345  0.19472285  0.07046401     0.10900
H682        H  0.79550098  0.22093971  0.05562000     0.11500
H683        H  0.74052022  0.14839204  0.09536214     0.11500
H684        H  0.71816917  0.12309765  0.10851514     0.11500
H685        H  0.75487838  0.09160012  0.06138532     0.11600
H686        H  0.77707246  0.11706337  0.04851846     0.10500
C687        C  0.70691555  0.85140871  0.01543015    -0.03400
C688        C  0.71720737  0.85412688  0.03565638    -0.09100
C689        C  0.71962751  0.87085843  0.04377587    -0.16800
C690        C  0.71192981  0.88509992  0.03178766     0.25400
C691        C  0.70259370  0.88259040  0.01138549    -0.18400
C692        C  0.70017535  0.86592077  0.00323156    -0.07400
C693        C  0.71184494  0.90215919  0.04083838    -0.13800
C694        C  0.70963213  0.91639356  0.04833114    -0.13500
C695        C  0.70489142  0.93314758  0.05734420     0.25300
C696        C  0.68835188  0.93472738  0.07433279    -0.18900
C697        C  0.68297678  0.95096991  0.08278058    -0.07400
C698        C  0.69409718  0.96594327  0.07434663    -0.03500
C699        C  0.71077518  0.96420566  0.05726807    -0.08800
C700        C  0.71609392  0.94792398  0.04882318    -0.16400
H701        H  0.72278336  0.84338241  0.04549813     0.11700
H702        H  0.72688653  0.87264209  0.05961522     0.11000
H703        H  0.69657971  0.89350739  0.00194562     0.10900
H704        H  0.69250168  0.86451107  0.98753415     0.11500
H705        H  0.67949138  0.92337996  0.08102200     0.11500
H706        H  0.67022569  0.95170496  0.09597573     0.11500
H707        H  0.71956299  0.97540039  0.05022248     0.11600
H708        H  0.72880026  0.94687897  0.03557311     0.10500
C709        C  0.82704649  0.34969010  0.01822917    -0.03400
C710        C  0.82464331  0.35143324  0.04031013    -0.09100
C711        C  0.82372504  0.36779891  0.04960107    -0.16800
C712        C  0.82501328  0.38262852  0.03695573     0.25400
C713        C  0.82697709  0.38102114  0.01496245    -0.18400
C714        C  0.82802596  0.36467767  0.00564744    -0.07400
C715        C  0.82510435  0.39949420  0.04651448    -0.13800
C716        C  0.82609840  0.41375630  0.05410495    -0.13500
C717        C  0.82842875  0.43088385  0.06272292     0.25300
C718        C  0.83949267  0.43331317  0.08252689    -0.18900
C719        C  0.84294098  0.44998342  0.09045384    -0.07400
C720        C  0.83530014  0.46449051  0.07868301    -0.03500
C721        C  0.82377445  0.46190393  0.05895610    -0.08800
C722        C  0.82045355  0.44520726  0.05100947    -0.16400
H723        H  0.82409038  0.34018791  0.05050062     0.11700
H724        H  0.82231913  0.36888300  0.06665183     0.11000
H725        H  0.82797003  0.39241584  0.00501077     0.10900
H726        H  0.82963544  0.36379936  0.98861687     0.11500
H727        H  0.84571025  0.42232319  0.09175687     0.11500
H728        H  0.85155883  0.45146924  0.10580638     0.11500
H729        H  0.81781382  0.47276953  0.04943348     0.11600
H730        H  0.81195120  0.44348442  0.03561874     0.10500
C731        C  0.78947948  0.60431255  0.08606424    -0.03400
C732        C  0.77244310  0.60305856  0.06919390    -0.09100
C733        C  0.76009837  0.61773623  0.06158269    -0.16800
C734        C  0.76451623  0.63391006  0.07069881     0.25400
C735        C  0.78118603  0.63528085  0.08760619    -0.18400
C736        C  0.79354234  0.62064329  0.09524827    -0.07400
C737        C  0.75226313  0.64913511  0.06255607    -0.13800
C738        C  0.74244525  0.66204296  0.05575032    -0.13500
C739        C  0.73115185  0.67762266  0.04760038     0.25300
C740        C  0.73614122  0.69355753  0.05710751    -0.18900
C741        C  0.72557215  0.70871891  0.04902485    -0.07400
C742        C  0.70978048  0.70820258  0.03124648    -0.03500
C743        C  0.70472844  0.69207392  0.02191259    -0.08800
C744        C  0.71535839  0.67693214  0.03000951    -0.16400
H745        H  0.76864478  0.59078374  0.06172248     0.11700
H746        H  0.74722124  0.61647866  0.04850590     0.11000
H747        H  0.78478593  0.64771981  0.09482758     0.10900
H748        H  0.80640489  0.62225896  0.10821379     0.11500
H749        H  0.74830228  0.69428652  0.07076134     0.11500
H750        H  0.72977128  0.72079476  0.05678015     0.11500
H751        H  0.69283682  0.69109651  0.00815041     0.11600
H752        H  0.71136823  0.66470243  0.02246818     0.10500
C753        C  0.23469555  0.31388407  0.58740616    -0.03400
C754        C  0.25509278  0.31520138  0.57350430    -0.09100
C755        C  0.26612943  0.30037244  0.56511178    -0.16800
C756        C  0.25695669  0.28402840  0.57044945     0.25400
C757        C  0.23679382  0.28255239  0.58435704    -0.18400
C758        C  0.22574749  0.29735903  0.59280530    -0.07400
C759        C  0.26806020  0.26880672  0.56145131    -0.13800
C760        C  0.27729797  0.25612499  0.55368559    -0.13500
C761        C  0.28823599  0.24099321  0.54431416     0.25300
C762        C  0.28041290  0.22456252  0.55065994    -0.18900
C763        C  0.29102471  0.20983808  0.54162487    -0.07400
C764        C  0.30969476  0.21131449  0.52605178    -0.03500
C765        C  0.31735545  0.22795113  0.51974530    -0.08800
C766        C  0.30669700  0.24265752  0.52882099    -0.16400
H767        H  0.26264615  0.32765167  0.56913731     0.11700
H768        H  0.28177356  0.30166474  0.55438932     0.11000
H769        H  0.22950387  0.26995956  0.58856922     0.10900
H770        H  0.20998612  0.29580106  0.60329757     0.11500
H771        H  0.26610699  0.22311598  0.56263951     0.11500
H772        H  0.28457559  0.19736381  0.54697596     0.11500
H773        H  0.33156606  0.22971080  0.50780917     0.11600
H774        H  0.31287437  0.25532709  0.52375722     0.10500
C775        C  0.20347558  0.56816180  0.51497542    -0.03400
C776        C  0.21620530  0.56542328  0.53417235    -0.09100
C777        C  0.21786117  0.54886795  0.54297647    -0.16800
C778        C  0.20689641  0.53479587  0.53271641     0.25400
C779        C  0.19468743  0.53730378  0.51341205    -0.18400
C780        C  0.19301344  0.55382780  0.50457252    -0.07400
C781        C  0.20719670  0.51791173  0.54234718    -0.13800
C782        C  0.20606259  0.50377878  0.55037366    -0.13500
C783        C  0.20317141  0.48697213  0.55990668     0.25300
C784        C  0.21212607  0.47223586  0.54962834    -0.18900
C785        C  0.20837484  0.45586750  0.55852097    -0.07400
C786        C  0.19546092  0.45402028  0.57778991    -0.03500
C787        C  0.18671531  0.46893839  0.58806095    -0.08800
C788        C  0.19058026  0.48527791  0.57919489    -0.16400
H789        H  0.22474215  0.57605031  0.54255953     0.11700
H790        H  0.22738170  0.54709084  0.55791895     0.11000
H791        H  0.18607277  0.52651350  0.50533989     0.10900
H792        H  0.18301808  0.55533519  0.48985566     0.11500
H793        H  0.22179164  0.47337586  0.53462425     0.11500
H794        H  0.21519234  0.44468273  0.55010707     0.11500
H795        H  0.17695941  0.46804531  0.60302293     0.11600
H796        H  0.18356057  0.49657635  0.58729784     0.10500
C797        C  0.33154622  0.95352470  0.57268492    -0.03400
C798        C  0.34018920  0.96872133  0.58240818    -0.09100
C799        C  0.33652454  0.98482220  0.57286224    -0.16800
C800        C  0.32417404  0.98606920  0.55343733     0.25400
C801        C  0.31512274  0.97107664  0.54374713    -0.18400
C802        C  0.31871124  0.95491788  0.55331731    -0.07400
C803        C  0.32152502  0.00272728  0.54336691    -0.13800
C804        C  0.32066401  0.01700147  0.53562897    -0.13500
C805        C  0.32112051  0.03430134  0.52705058     0.25300
C806        C  0.31358382  0.04830472  0.53948072    -0.18900
C807        C  0.31546629  0.06519321  0.53165894    -0.07400
C808        C  0.32503664  0.06836101  0.51125940    -0.03500
C809        C  0.33202377  0.05412343  0.49872622    -0.08800
C810        C  0.33013143  0.03726881  0.50658575    -0.16400
H811        H  0.34982400  0.96824647  0.59741565     0.11700
H812        H  0.34355856  0.99631185  0.58057006     0.11000
H813        H  0.30554914  0.97184820  0.52868811     0.10900
H814        H  0.31186579  0.94353079  0.54531135     0.11500
H815        H  0.30662846  0.04619703  0.55537522     0.11500
H816        H  0.30990210  0.07572445  0.54181922     0.11500
H817        H  0.33920845  0.05591096  0.48288557     0.11600
H818        H  0.33603723  0.02655971  0.49678325     0.10500
C819        C  0.29660452  0.81303186  0.58427482    -0.03400
C820        C  0.30007008  0.79699011  0.59439679    -0.09100
C821        C  0.28842300  0.78211990  0.58672062    -0.16800
C822        C  0.27314523  0.78303497  0.56884861     0.25400
C823        C  0.26957738  0.79886623  0.55863597    -0.18400
C824        C  0.28119147  0.81375066  0.56626577    -0.07400
C825        C  0.26105518  0.76776178  0.56100762    -0.13800
C826        C  0.25082012  0.75505399  0.55430075    -0.13500
C827        C  0.23862273  0.73996180  0.54606968     0.25300
C828        C  0.22576273  0.74086816  0.52685964    -0.18900
C829        C  0.21420103  0.72616610  0.51866634    -0.07400
C830        C  0.21541582  0.71031862  0.52955100    -0.03500
C831        C  0.22824954  0.70958406  0.54894408    -0.08800
C832        C  0.23974641  0.72432403  0.55713474    -0.16400
H833        H  0.31171044  0.79582860  0.60827390     0.11700
H834        H  0.29131137  0.76991179  0.59475142     0.11000
H835        H  0.25778962  0.79971499  0.54476705     0.10900
H836        H  0.27802102  0.82576137  0.55795135     0.11500
H837        H  0.22481375  0.75289828  0.51815780     0.11500
H838        H  0.20469462  0.72721222  0.50360632     0.11500
H839        H  0.22936577  0.69767952  0.55784312     0.11600
H840        H  0.24960549  0.72349943  0.57207433     0.10500
C841        C  0.81660197  0.71166727  0.53480102    -0.03400
C842        C  0.79481551  0.71055518  0.54715525    -0.09100
C843        C  0.78436117  0.72535023  0.55613500    -0.16800
C844        C  0.79550077  0.74146813  0.55299619     0.25400
C845        C  0.81741887  0.74270746  0.54110410    -0.18400
C846        C  0.82790803  0.72791874  0.53207078    -0.07400
C847        C  0.78394761  0.75676785  0.56137711    -0.13800
C848        C  0.77365189  0.76951909  0.56791889    -0.13500
C849        C  0.76100546  0.78474413  0.57530115     0.25300
C850        C  0.76427185  0.80047659  0.56475811    -0.18900
C851        C  0.75202427  0.81528802  0.57188024    -0.07400
C852        C  0.73628860  0.81460653  0.58970334    -0.03500
C853        C  0.73301669  0.79864583  0.60008774    -0.08800
C854        C  0.74529275  0.78385076  0.59292315    -0.16400
H855        H  0.78546185  0.69835747  0.54957230     0.11700
H856        H  0.76735361  0.72423901  0.56529032     0.11000
H857        H  0.82622977  0.75511438  0.53860956     0.10900
H858        H  0.84481994  0.72928425  0.52288371     0.11500
H859        H  0.77631313  0.80130337  0.55105206     0.11500
H860        H  0.75504415  0.82724305  0.56336112     0.11500
H861        H  0.72108581  0.79749320  0.61378672     0.11600
H862        H  0.74254896  0.77170768  0.60116880     0.10500
C863        C  0.82911926  0.45509717  0.57872135    -0.03400
C864        C  0.84025425  0.46967485  0.58801935    -0.09100
C865        C  0.83639962  0.48612777  0.57956418    -0.16800
C866        C  0.82137598  0.48829592  0.56170200     0.25400
C867        C  0.80994130  0.47393652  0.55244678    -0.18400
C868        C  0.81371748  0.45743327  0.56092711    -0.07400
C869        C  0.81868083  0.50519479  0.55248847    -0.13800
C870        C  0.81826234  0.51946958  0.54486339    -0.13500
C871        C  0.81994606  0.53642775  0.53563732     0.25300
C872        C  0.83477645  0.53902798  0.51773879    -0.18900
C873        C  0.83757494  0.55555797  0.50920715    -0.07400
C874        C  0.82558659  0.56982282  0.51851093    -0.03500
C875        C  0.81044921  0.56703083  0.53640287    -0.08800
C876        C  0.80768060  0.55043932  0.54491520    -0.16400
H877        H  0.85195613  0.46844679  0.60186568     0.11700
H878        H  0.84535654  0.49714571  0.58684198     0.11000
H879        H  0.79836681  0.47546242  0.53852956     0.10900
H880        H  0.80496992  0.44652295  0.55328955     0.11500
H881        H  0.84447808  0.52828026  0.51049363     0.11500
H882        H  0.84946140  0.55707966  0.49556900     0.11500
H883        H  0.80080224  0.57762273  0.54395107     0.11600
H884        H  0.79621273  0.54857630  0.55881764     0.10500
C885        C  0.69649690  0.95506683  0.57812176    -0.03400
C886        C  0.71473973  0.95785649  0.56245835    -0.09100
C887        C  0.71855366  0.97436620  0.55395075    -0.16800
C888        C  0.70423452  0.98830884  0.56102574     0.25400
C889        C  0.68630480  0.98570922  0.57673569    -0.18400
C890        C  0.68245254  0.96927293  0.58524267    -0.07400
C891        C  0.70698870  0.00518486  0.55169400    -0.13800
C892        C  0.70701517  0.01946035  0.54402178    -0.13500
C893        C  0.70448065  0.03638658  0.53478361     0.25300
C894        C  0.71977665  0.05002302  0.54127316    -0.18900
C895        C  0.71641579  0.06657350  0.53277021    -0.07400
C896        C  0.69779146  0.06963324  0.51756746    -0.03500
C897        C  0.68265483  0.05581297  0.51107406    -0.08800
C898        C  0.68592764  0.03934232  0.51968503    -0.16400
H899        H  0.72592964  0.94729802  0.55652470     0.11700
H900        H  0.73241456  0.97620936  0.54173542     0.11000
H901        H  0.67504400  0.99640293  0.58230172     0.10900
H902        H  0.66838821  0.96781226  0.59728648     0.11500
H903        H  0.73416257  0.04790050  0.55300792     0.11500
H904        H  0.72845839  0.07691469  0.53798566     0.11500
H905        H  0.66793837  0.05776198  0.49963344     0.11600
H906        H  0.67383494  0.02893644  0.51468793     0.10500
C907        C  0.71462512  0.21156015  0.52853809    -0.03400
C908        C  0.73254039  0.20997327  0.54471087    -0.09100
C909        C  0.74425626  0.22459215  0.55305016    -0.16800
C910        C  0.73827571  0.24103335  0.54540994     0.25400
C911        C  0.72048501  0.24279273  0.52940580    -0.18400
C912        C  0.70873509  0.22820315  0.52103256    -0.07400
C913        C  0.75016494  0.25611677  0.55410827    -0.13800
C914        C  0.75967214  0.26890143  0.56141583    -0.13500
C915        C  0.77047628  0.28433067  0.57021226     0.25300
C916        C  0.76769762  0.30015514  0.55977279    -0.18900
C917        C  0.77781447  0.31519962  0.56844612    -0.07400
C918        C  0.79090839  0.31465796  0.58774073    -0.03500
C919        C  0.79360575  0.29863625  0.59808501    -0.08800
C920        C  0.78346717  0.28361092  0.58936652    -0.16400
H921        H  0.73766281  0.19747741  0.55098153     0.11700
H922        H  0.75796892  0.22306290  0.56546739     0.11000
H923        H  0.71565684  0.25546546  0.52338719     0.10900
H924        H  0.69510490  0.23005793  0.50868575     0.11500
H925        H  0.75766656  0.30087679  0.54494372     0.11500
H926        H  0.77537773  0.32719029  0.55990259     0.11500
H927        H  0.80341092  0.29762094  0.61294949     0.11600
H928        H  0.78569121  0.27143230  0.59762616     0.10500
loop_ 
_geom_bond_atom_site_label_1 
_geom_bond_atom_site_label_2 
_geom_bond_distance 
_geom_bond_site_symmetry_2 
_ccdc_geom_bond_type 
N1            N2   1.321       .  A
N1            C5   1.346       .  A
N1           Cu9   2.074       .  S
N2            C3   1.345       .  A
N2           Cu8   2.076       .  S
C3            C4   1.387       .  A
C3            H6   1.080       .  S
C4            C5   1.387       .  A
C4          C896   1.482       .  S
C5            H7   1.081       .  S
Cu8          N11   2.075       .  S
Cu9          N19   2.074       .  S
Cu10         N12   2.082       .  S
Cu10         N18   2.082       .  S
N11          N12   1.323       .  A
N11          C15   1.345       .  A
N12          C13   1.347       .  A
C13          C14   1.384       .  A
C13          H16   1.082       .  S
C14          C15   1.382       .  A
C14         C244   1.471       .  S
C15          H17   1.082       .  S
N18          N19   1.321       .  A
N18          C22   1.346       .  A
N19          C20   1.344       .  A
C20          C21   1.389       .  A
C20          H23   1.081       .  S
C21          C22   1.391       .  A
C21         C907   1.490       .  S
C22          H24   1.080       .  S
N25          N26   1.321       .  A
N25          C29   1.346       .  A
N25         Cu33   2.075       .  S
N26          C27   1.343       .  A
N26         Cu32   2.070       .  S
C27          C28   1.387       .  A
C27          H30   1.082       .  S
C28          C29   1.388       .  A
C28         C863   1.484       .  S
C29          H31   1.081       .  S
Cu32         N35   2.070       .  S
Cu33         N43   2.076       .  S
Cu34         N36   2.072       .  S
Cu34         N42   2.073       .  S
N35          N36   1.322       .  A
N35          C39   1.344       .  A
N36          C37   1.345       .  A
C37          C38   1.383       .  A
C37          H40   1.082       .  S
C38          C39   1.382       .  A
C38         C422   1.468       .  S
C39          H41   1.082       .  S
N42          N43   1.321       .  A
N42          C46   1.344       .  A
N43          C44   1.344       .  A
C44          C45   1.389       .  A
C44          H47   1.080       .  S
C45          C46   1.388       .  A
C45         C918   1.488       .  S
C46          H48   1.080       .  S
N49          N50   1.319       .  A
N49          C53   1.346       .  A
N49         Cu57   2.076       .  S
N50          C51   1.342       .  A
N50         Cu56   2.064       .  S
C51          C52   1.388       .  A
C51          H54   1.080       .  S
C52          C53   1.391       .  A
C52         C885   1.488       .  S
C53          H55   1.080       .  S
Cu56         N59   2.063       .  S
Cu57         N67   2.077       .  S
Cu58         N60   2.075       .  S
Cu58         N66   2.077       .  S
N59          N60   1.322       .  A
N59          C63   1.342       .  A
N60          C61   1.347       .  A
C61          C62   1.384       .  A
C61          H64   1.083       .  S
C62          C63   1.380       .  A
C62         C566   1.467       .  S
C63          H65   1.082       .  S
N66          N67   1.322       .  A
N66          C70   1.344       .  A
N67          C68   1.344       .  A
C68          C69   1.388       .  A
C68          H71   1.082       .  S
C69          C70   1.388       .  A
C69         C852   1.488       .  S
C70          H72   1.082       .  S
N73          N74   1.320       .  A
N73          C77   1.345       .  A
N73         Cu81   2.070       .  S
N74          C75   1.342       .  A
N74         Cu80   2.068       .  S
C75          C76   1.388       .  A
C75          H78   1.079       .  S
C76          C77   1.389       .  A
C76         C874   1.486       .  S
C77          H79   1.080       .  S
Cu80         N83   2.068       .  S
Cu81         N91   2.070       .  S
Cu82         N84   2.091       .  S
Cu82         N90   2.091       .  S
N83          N84   1.322       .  A
N83          C87   1.344       .  A
N84          C85   1.349       .  A
C85          C86   1.387       .  A
C85          H88   1.082       .  S
C86          C87   1.381       .  A
C86         C213   1.474       .  S
C87          H89   1.082       .  S
N90          N91   1.323       .  A
N90          C94   1.347       .  A
N91          C92   1.343       .  A
C92          C93   1.386       .  A
C92          H95   1.082       .  S
C93          C94   1.390       .  A
C93         C841   1.487       .  S
C94          H96   1.082       .  S
N97          N98   1.321       .  A
N97         C101   1.347       .  A
N97        Cu105   2.075       .  S
N98          C99   1.345       .  A
N98        Cu104   2.083       .  S
C99         C100   1.389       .  A
C99         H102   1.081       .  S
C100        C101   1.389       .  A
C100        C797   1.489       .  S
C101        H103   1.081       .  S
Cu104       N107   2.083       .  S
Cu105       N115   2.075       .  S
Cu106       N108   2.077       .  S
Cu106       N114   2.077       .  S
N107        N108   1.323       .  A
N107        C111   1.346       .  A
N108        C109   1.347       .  A
C109        C110   1.383       .  A
C109        H112   1.082       .  S
C110        C111   1.384       .  A
C110        C556   1.473       .  S
C111        H113   1.082       .  S
N114        N115   1.322       .  A
N114        C118   1.345       .  A
N115        C116   1.343       .  A
C116        C117   1.388       .  A
C116        H119   1.082       .  S
C117        C118   1.389       .  A
C117        C819   1.487       .  S
C118        H120   1.082       .  S
N121        N122   1.321       .  A
N121        C125   1.345       .  A
N121       Cu129   2.073       .  S
N122        C123   1.345       .  A
N122       Cu128   2.077       .  S
C123        C124   1.389       .  A
C123        H126   1.081       .  S
C124        C125   1.388       .  A
C124        C775   1.488       .  S
C125        H127   1.081       .  S
Cu128       N131   2.076       .  S
Cu129       N139   2.073       .  S
Cu130       N132   2.070       .  S
Cu130       N138   2.070       .  S
N131        N132   1.322       .  A
N131        C135   1.345       .  A
N132        C133   1.345       .  A
C133        C134   1.382       .  A
C133        H136   1.082       .  S
C134        C135   1.383       .  A
C134        C196   1.469       .  S
C135        H137   1.082       .  S
N138        N139   1.321       .  A
N138        C142   1.343       .  A
N139        C140   1.344       .  A
C140        C141   1.387       .  A
C140        H143   1.082       .  S
C141        C142   1.387       .  A
C141        C830   1.483       .  S
C142        H144   1.082       .  S
N145        N146   1.320       .  A
N145        C149   1.348       .  A
N145       Cu153   2.084       .  S
N146        C147   1.343       .  A
N146       Cu152   2.066       .  S
C147        C148   1.387       .  A
C147        H150   1.080       .  S
C148        C149   1.393       .  A
C148        C808   1.491       .  S
C149        H151   1.080       .  S
Cu152       N155   2.066       .  S
Cu153       N163   2.084       .  S
Cu154       N156   2.076       .  S
Cu154       N162   2.077       .  S
N155        N156   1.322       .  A
N155        C159   1.342       .  A
N156        C157   1.347       .  A
C157        C158   1.384       .  A
C157        H160   1.082       .  S
C158        C159   1.380       .  A
C158        C254   1.468       .  S
C159        H161   1.082       .  S
N162        N163   1.323       .  A
N162        C166   1.345       .  A
N163        C164   1.345       .  A
C164        C165   1.389       .  A
C164        H167   1.080       .  S
C165        C166   1.389       .  A
C165        C764   1.489       .  S
C166        H168   1.080       .  S
N169        N170   1.321       .  A
N169        C173   1.346       .  A
N169       Cu177   2.077       .  S
N170        C171   1.344       .  A
N170       Cu176   2.076       .  S
C171        C172   1.387       .  A
C171        H174   1.082       .  S
C172        C173   1.388       .  A
C172        C786   1.485       .  S
C173        H175   1.082       .  S
Cu176       N179   2.076       .  S
Cu177       N187   2.077       .  S
Cu178       N180   2.073       .  S
Cu178       N186   2.073       .  S
N179        N180   1.322       .  A
N179        C183   1.345       .  A
N180        C181   1.346       .  A
C181        C182   1.383       .  A
C181        H184   1.082       .  S
C182        C183   1.383       .  A
C182        C412   1.470       .  S
C183        H185   1.082       .  S
N186        N187   1.322       .  A
N186        C190   1.344       .  A
N187        C188   1.345       .  A
C188        C189   1.388       .  A
C188        H191   1.080       .  S
C189        C190   1.387       .  A
C189        C753   1.485       .  S
C190        H192   1.080       .  S
N193        N194   1.323       .  A
N193        C197   1.346       .  A
N193       Cu201   2.080       .  S
N194        C195   1.344       .  A
N194       Cu200   2.073       .  S
C195        C196   1.381       .  A
C195        H198   1.083       .  S
C196        C197   1.383       .  A
C197        H199   1.082       .  S
Cu200       N203   2.074       .  S
Cu201       N211   2.080   1_455  S
Cu202       N204   2.088   1_655  S
Cu202       N210   2.088       .  S
N203        N204   1.322       .  A
N203        C207   1.345       .  A
N204        C205   1.348   1_455  A
C205        C206   1.387   1_655  A
C205        H208   1.082       .  S
C206        C207   1.384       .  A
C206        C237   1.478       .  S
C207        H209   1.082       .  S
N210        N211   1.324       .  A
N210        C214   1.346       .  A
N211        C212   1.348       .  A
C212        C213   1.383       .  A
C212        H215   1.083       .  S
C213        C214   1.384       .  A
C214        H216   1.083       .  S
N217        N218   1.322       .  A
N217        C221   1.348       .  A
N217       Cu225   2.086       .  S
N218        C219   1.344       .  A
N218       Cu224   2.069   1_655  S
C219        C220   1.381       .  A
C219        H222   1.082       .  S
C220        C221   1.386       .  A
C220        C302   1.472       .  S
C221        H223   1.082       .  S
Cu224       N227   2.068       .  S
Cu225       N235   2.087   1_655  S
Cu226       N228   2.082       .  S
Cu226       N234   2.083       .  S
N227        N228   1.322       .  A
N227        C231   1.344       .  A
N228        C229   1.348       .  A
C229        C230   1.385       .  A
C229        H232   1.082       .  S
C230        C231   1.381       .  A
C230        C446   1.471       .  S
C231        H233   1.082       .  S
N234        N235   1.324       .  A
N234        C238   1.346       .  A
N235        C236   1.348   1_455  A
C236        C237   1.385   1_655  A
C236        H239   1.082       .  S
C237        C238   1.385       .  A
C238        H240   1.082       .  S
N241        N242   1.322       .  A
N241        C245   1.346       .  A
N241       Cu249   2.079       .  S
N242        C243   1.346       .  A
N242       Cu248   2.075       .  S
C243        C244   1.383       .  A
C243        H246   1.082       .  S
C244        C245   1.383       .  A
C245        H247   1.083       .  S
Cu248       N251   2.075       .  S
Cu249       N259   2.079       .  S
Cu250       N252   2.076       .  S
Cu250       N258   2.076       .  S
N251        N252   1.323       .  A
N251        C255   1.346       .  A
N252        C253   1.344       .  A
C253        C254   1.382       .  A
C253        H256   1.083       .  S
C254        C255   1.382       .  A
C255        H257   1.082       .  S
N258        N259   1.322       .  A
N258        C262   1.346       .  A
N259        C260   1.345       .  A
C260        C261   1.384       .  A
C260        H263   1.082       .  S
C261        C262   1.384       .  A
C261        C285   1.474       .  S
C262        H264   1.082       .  S
N265        N266   1.322       .  A
N265        C269   1.347       .  A
N265       Cu273   2.078       .  S
N266        C267   1.344       .  A
N266       Cu272   2.069       .  S
C267        C268   1.382       .  A
C267        H270   1.082       .  S
C268        C269   1.384       .  A
C268        C350   1.471       .  S
C269        H271   1.082       .  S
Cu272       N275   2.070       .  S
Cu273       N283   2.079       .  S
Cu274       N276   2.080       .  S
Cu274       N282   2.080       .  S
N275        N276   1.322       .  A
N275        C279   1.343       .  A
N276        C277   1.348       .  A
C277        C278   1.385       .  A
C277        H280   1.082       .  S
C278        C279   1.381       .  A
C278        C494   1.471       .  S
C279        H281   1.082       .  S
N282        N283   1.323       .  A
N282        C286   1.346       .  A
N283        C284   1.346       .  A
C284        C285   1.384       .  A
C284        H287   1.082       .  S
C285        C286   1.384       .  A
C286        H288   1.082       .  S
N289        N290   1.322       .  A
N289        C293   1.347       .  A
N289       Cu297   2.082       .  S
N290        C291   1.344       .  A
N290       Cu296   2.074       .  S
C291        C292   1.386       .  A
C291        H294   1.081       .  S
C292        C293   1.388       .  A
C292        C720   1.484       .  S
C293        H295   1.081       .  S
Cu296       N299   2.074       .  S
Cu297       N307   2.083       .  S
Cu298       N300   2.078       .  S
Cu298       N306   2.079       .  S
N299        N300   1.322       .  A
N299        C303   1.345       .  A
N300        C301   1.347       .  A
C301        C302   1.384       .  A
C301        H304   1.082       .  S
C302        C303   1.383       .  A
C303        H305   1.082       .  S
N306        N307   1.322       .  A
N306        C310   1.344       .  A
N307        C308   1.347       .  A
C308        C309   1.391       .  A
C308        H311   1.081       .  S
C309        C310   1.389       .  A
C309        C731   1.492       .  S
C310        H312   1.080       .  S
N313        N314   1.320   1_554  A
N313        C317   1.347       .  A
N313       Cu321   2.083       .  S
N314        C315   1.343       .  A
N314       Cu320   2.068       .  S
C315        C316   1.388   1_556  A
C315        H318   1.080       .  S
C316        C317   1.392       .  A
C316        C687   1.490       .  S
C317        H319   1.080       .  S
Cu320       N323   2.068       .  S
Cu321       N331   2.084       .  S
Cu322       N324   2.083       .  S
Cu322       N330   2.084   1_556  S
N323        N324   1.322       .  A
N323        C327   1.345       .  A
N324        C325   1.347       .  A
C325        C326   1.385       .  A
C325        H328   1.082       .  S
C326        C327   1.382       .  A
C326        C542   1.471       .  S
C327        H329   1.082       .  S
N330        N331   1.322       .  A
N330        C334   1.346       .  A
N331        C332   1.346       .  A
C332        C333   1.389       .  A
C332        H335   1.081       .  S
C333        C334   1.389       .  A
C333        C742   1.491       .  S
C334        H336   1.081   1_554  S
N337        N338   1.320       .  A
N337        C341   1.345   1_545  A
N337       Cu345   2.072       .  S
N338        C339   1.345   1_545  A
N338       Cu344   2.075       .  S
C339        C340   1.389       .  A
C339        H342   1.081       .  S
C340        C341   1.388       .  A
C340        C698   1.487       .  S
C341        H343   1.080   1_565  S
Cu344       N347   2.076       .  S
Cu345       N355   2.072       .  S
Cu346       N348   2.080       .  S
Cu346       N354   2.080       .  S
N347        N348   1.323       .  A
N347        C351   1.345       .  A
N348        C349   1.346       .  A
C349        C350   1.383       .  A
C349        H352   1.082       .  S
C350        C351   1.382       .  A
C351        H353   1.082       .  S
N354        N355   1.321       .  A
N354        C358   1.345       .  A
N355        C356   1.344       .  A
C356        C357   1.388       .  A
C356        H359   1.081       .  S
C357        C358   1.390       .  A
C357        C676   1.489       .  S
C358        H360   1.081       .  S
N361        N362   1.321   1_554  A
N361        C365   1.344       .  A
N361       Cu369   2.071       .  S
N362        C363   1.345       .  A
N362       Cu368   2.076       .  S
C363        C364   1.387   1_556  A
C363        H366   1.082       .  S
C364        C365   1.386       .  A
C364        C709   1.483       .  S
C365        H367   1.081       .  S
Cu368       N371   2.075       .  S
Cu369       N379   2.071       .  S
Cu370       N372   2.070       .  S
Cu370       N378   2.070   1_556  S
N371        N372   1.323       .  A
N371        C375   1.345       .  A
N372        C373   1.345       .  A
C373        C374   1.381       .  A
C373        H376   1.082       .  S
C374        C375   1.382       .  A
C374        C398   1.467       .  S
C375        H377   1.082       .  S
N378        N379   1.320       .  A
N378        C382   1.344       .  A
N379        C380   1.344       .  A
C380        C381   1.389       .  A
C380        H383   1.081       .  S
C381        C382   1.389       .  A
C381        C665   1.486       .  S
C382        H384   1.081   1_554  S
N385        N386   1.323       .  A
N385        C389   1.344       .  A
N385       Cu393   2.074       .  S
N386        C387   1.346       .  A
N386       Cu392   2.079       .  S
C387        C388   1.383       .  A
C387        H390   1.082       .  S
C388        C389   1.381       .  A
C388        C518   1.469       .  S
C389        H391   1.083       .  S
Cu392       N395   2.079   1_455  S
Cu393       N403   2.074       .  S
Cu394       N396   2.069       .  S
Cu394       N402   2.069       .  S
N395        N396   1.323       .  A
N395        C399   1.346       .  A
N396        C397   1.344       .  A
C397        C398   1.380       .  A
C397        H400   1.083       .  S
C398        C399   1.383       .  A
C399        H401   1.083       .  S
N402        N403   1.321   1_655  A
N402        C406   1.345       .  A
N403        C404   1.345       .  A
C404        C405   1.384       .  A
C404        H407   1.082       .  S
C405        C406   1.383   1_455  A
C405        C429   1.471       .  S
C406        H408   1.082       .  S
N409        N410   1.322       .  A
N409        C413   1.346       .  A
N409       Cu417   2.075       .  S
N410        C411   1.344       .  A
N410       Cu416   2.069       .  S
C411        C412   1.382       .  A
C411        H414   1.082       .  S
C412        C413   1.384       .  A
C413        H415   1.082       .  S
Cu416       N419   2.069   1_455  S
Cu417       N427   2.075       .  S
Cu418       N420   2.073       .  S
Cu418       N426   2.073       .  S
N419        N420   1.322       .  A
N419        C423   1.344       .  A
N420        C421   1.345       .  A
C421        C422   1.383       .  A
C421        H424   1.082       .  S
C422        C423   1.381       .  A
C423        H425   1.082       .  S
N426        N427   1.322   1_655  A
N426        C430   1.346       .  A
N427        C428   1.345       .  A
C428        C429   1.383       .  A
C428        H431   1.082       .  S
C429        C430   1.383   1_455  A
C430        H432   1.082       .  S
N433        N434   1.321       .  A
N433        C437   1.349       .  A
N433       Cu441   2.091       .  S
N434        C435   1.344       .  A
N434       Cu440   2.074       .  S
C435        C436   1.389       .  A
C435        H438   1.081       .  S
C436        C437   1.393       .  A
C436        C632   1.494       .  S
C437        H439   1.081       .  S
Cu440       N443   2.074       .  S
Cu441       N451   2.091       .  S
Cu442       N444   2.075       .  S
Cu442       N450   2.075       .  S
N443        N444   1.322       .  A
N443        C447   1.344       .  A
N444        C445   1.347       .  A
C445        C446   1.384       .  A
C445        H448   1.082       .  S
C446        C447   1.383       .  A
C447        H449   1.082       .  S
N450        N451   1.322       .  A
N450        C454   1.344       .  A
N451        C452   1.347       .  A
C452        C453   1.391       .  A
C452        H455   1.078       .  S
C453        C454   1.388       .  A
C453        C643   1.491       .  S
C454        H456   1.081       .  S
N457        N458   1.319   1_554  A
N457        C461   1.345       .  A
N457       Cu465   2.073       .  S
N458        C459   1.343       .  A
N458       Cu464   2.067       .  S
C459        C460   1.388   1_556  A
C459        H462   1.081       .  S
C460        C461   1.390       .  A
C460        C599   1.487       .  S
C461        H463   1.080       .  S
Cu464       N467   2.066       .  S
Cu465       N475   2.074       .  S
Cu466       N468   2.081       .  S
Cu466       N474   2.082       .  S
N467        N468   1.322       .  A
N467        C471   1.343       .  A
N468        C469   1.347       .  A
C469        C470   1.384       .  A
C469        H472   1.082       .  S
C470        C471   1.380       .  A
C470        C532   1.469       .  S
C471        H473   1.082       .  S
N474        N475   1.322   1_556  A
N474        C478   1.346   1_556  A
N475        C476   1.344       .  A
C476        C477   1.388       .  A
C476        H479   1.078       .  S
C477        C478   1.390       .  A
C477        C654   1.489       .  S
C478        H480   1.081   1_554  S
N481        N482   1.321       .  A
N481        C485   1.345   1_545  A
N481       Cu489   2.079       .  S
N482        C483   1.345   1_545  A
N482       Cu488   2.075       .  S
C483        C484   1.389       .  A
C483        H486   1.081       .  S
C484        C485   1.390       .  A
C484        C610   1.490       .  S
C485        H487   1.080       .  S
Cu488       N491   2.075       .  S
Cu489       N499   2.080       .  S
Cu490       N492   2.075       .  S
Cu490       N498   2.075       .  S
N491        N492   1.322       .  A
N491        C495   1.344       .  A
N492        C493   1.347       .  A
C493        C494   1.383       .  A
C493        H496   1.082       .  S
C494        C495   1.382       .  A
C495        H497   1.082       .  S
N498        N499   1.321       .  A
N498        C502   1.344       .  A
N499        C500   1.346       .  A
C500        C501   1.390       .  A
C500        H503   1.080       .  S
C501        C502   1.389       .  A
C501        C588   1.490       .  S
C502        H504   1.079       .  S
N505        N506   1.321   1_554  A
N505        C509   1.346       .  A
N505       Cu513   2.080       .  S
N506        C507   1.346       .  A
N506       Cu512   2.081       .  S
C507        C508   1.389   1_556  A
C507        H510   1.081       .  S
C508        C509   1.389       .  A
C508        C621   1.489       .  S
C509        H511   1.080       .  S
Cu512       N515   2.079       .  S
Cu513       N523   2.080       .  S
Cu514       N516   2.076       .  S
Cu514       N522   2.076       .  S
N515        N516   1.323       .  A
N515        C519   1.345       .  A
N516        C517   1.346       .  A
C517        C518   1.383       .  A
C517        H520   1.082       .  S
C518        C519   1.382       .  A
C519        H521   1.082       .  S
N522        N523   1.321   1_556  A
N522        C526   1.344   1_556  A
N523        C524   1.345       .  A
C524        C525   1.389       .  A
C524        H527   1.082       .  S
C525        C526   1.389       .  A
C525        C577   1.489       .  S
C526        H528   1.083   1_554  S
N529        N530   1.322       .  A
N529        C533   1.343       .  A
N529       Cu537   2.069       .  S
N530        C531   1.346       .  A
N530       Cu536   2.075       .  S
C531        C532   1.383       .  A
C531        H534   1.082       .  S
C532        C533   1.381       .  A
C533        H535   1.083       .  S
Cu536       N539   2.074       .  S
Cu537       N547   2.068       .  S
Cu538       N540   2.079       .  S
Cu538       N546   2.078       .  S
N539        N540   1.323       .  A
N539        C543   1.345       .  A
N540        C541   1.346       .  A
C541        C542   1.384       .  A
C541        H544   1.083       .  S
C542        C543   1.382       .  A
C543        H545   1.082       .  S
N546        N547   1.322       .  A
N546        C550   1.345       .  A
N547        C548   1.345       .  A
C548        C549   1.382       .  A
C548        H551   1.082       .  S
C549        C550   1.384       .  A
C549        C573   1.471       .  S
C550        H552   1.082       .  S
N553        N554   1.322       .  A
N553        C557   1.348       .  A
N553       Cu561   2.085       .  S
N554        C555   1.345       .  A
N554       Cu560   2.072       .  S
C555        C556   1.382       .  A
C555        H558   1.082       .  S
C556        C557   1.385       .  A
C557        H559   1.082       .  S
Cu560       N563   2.072       .  S
Cu561       N571   2.085       .  S
Cu562       N564   2.066       .  S
Cu562       N570   2.066       .  S
N563        N564   1.322       .  A
N563        C567   1.343       .  A
N564        C565   1.346       .  A
C565        C566   1.382       .  A
C565        H568   1.082       .  S
C566        C567   1.382       .  A
C567        H569   1.082       .  S
N570        N571   1.323       .  A
N570        C574   1.344       .  A
N571        C572   1.347       .  A
C572        C573   1.385       .  A
C572        H575   1.082       .  S
C573        C574   1.381       .  A
C574        H576   1.082       .  S
C577        C578   1.409       .  A
C577        C582   1.409       .  A
C578        C579   1.399       .  A
C578        H591   1.081       .  S
C579        C580   1.399       .  A
C579        H592   1.084       .  S
C580        C581   1.399       .  A
C580        C583   1.442       .  S
C581        C582   1.399       .  A
C581        H593   1.083       .  S
C582        H594   1.082       .  S
C583        C584   1.207       .  T
C584        C585   1.442       .  S
C585        C586   1.400       .  A
C585        C590   1.398       .  A
C586        C587   1.400       .  A
C586        H595   1.083       .  S
C587        C588   1.409       .  A
C587        H596   1.081       .  S
C588        C589   1.409       .  A
C589        C590   1.398       .  A
C589        H597   1.080       .  S
C590        H598   1.084       .  S
C599        C600   1.409       .  A
C599        C604   1.409       .  A
C600        C601   1.398       .  A
C600        H613   1.081   1_554  S
C601        C602   1.398       .  A
C601        H614   1.084       .  S
C602        C603   1.399       .  A
C602        C605   1.441       .  S
C603        C604   1.400       .  A
C603        H615   1.083       .  S
C604        H616   1.081       .  S
C605        C606   1.207       .  T
C606        C607   1.441       .  S
C607        C608   1.399       .  A
C607        C612   1.399       .  A
C608        C609   1.399       .  A
C608        H617   1.084       .  S
C609        C610   1.409       .  A
C609        H618   1.081       .  S
C610        C611   1.409       .  A
C611        C612   1.399       .  A
C611        H619   1.081       .  S
C612        H620   1.084       .  S
C621        C622   1.408       .  A
C621        C626   1.409       .  A
C622        C623   1.401       .  A
C622        H635   1.081   1_554  S
C623        C624   1.400       .  A
C623        H636   1.084       .  S
C624        C625   1.400       .  A
C624        C627   1.446       .  S
C625        C626   1.401       .  A
C625        H637   1.083       .  S
C626        H638   1.082       .  S
C627        C628   1.210       .  T
C628        C629   1.447       .  S
C629        C630   1.401       .  A
C629        C634   1.399       .  A
C630        C631   1.403       .  A
C630        H639   1.083       .  S
C631        C632   1.410       .  A
C631        H640   1.082       .  S
C632        C633   1.410       .  A
C633        C634   1.399       .  A
C633        H641   1.080       .  S
C634        H642   1.084       .  S
C643        C644   1.410       .  A
C643        C648   1.408       .  A
C644        C645   1.400       .  A
C644        H657   1.078       .  S
C645        C646   1.398       .  A
C645        H658   1.086       .  S
C646        C647   1.400       .  A
C646        C649   1.443       .  S
C647        C648   1.400       .  A
C647        H659   1.081       .  S
C648        H660   1.083       .  S
C649        C650   1.208       .  T
C650        C651   1.442       .  S
C651        C652   1.399       .  A
C651        C656   1.399       .  A
C652        C653   1.400       .  A
C652        H661   1.085       .  S
C653        C654   1.409       .  A
C653        H662   1.078       .  S
C654        C655   1.409       .  A
C655        C656   1.399       .  A
C655        H663   1.083       .  S
C656        H664   1.081       .  S
C665        C666   1.408       .  A
C665        C670   1.409       .  A
C666        C667   1.398       .  A
C666        H679   1.082       .  S
C667        C668   1.399       .  A
C667        H680   1.082       .  S
C668        C669   1.399       .  A
C668        C671   1.440       .  S
C669        C670   1.398       .  A
C669        H681   1.085       .  S
C670        H682   1.080       .  S
C671        C672   1.206       .  T
C672        C673   1.440       .  S
C673        C674   1.398       .  A
C673        C678   1.399       .  A
C674        C675   1.399       .  A
C674        H683   1.084       .  S
C675        C676   1.409       .  A
C675        H684   1.080       .  S
C676        C677   1.410       .  A
C677        C678   1.399       .  A
C677        H685   1.081       .  S
C678        H686   1.084       .  S
C687        C688   1.409       .  A
C687        C692   1.409       .  A
C688        C689   1.401       .  A
C688        H701   1.081       .  S
C689        C690   1.400       .  A
C689        H702   1.084       .  S
C690        C691   1.398       .  A
C690        C693   1.441       .  S
C691        C692   1.397       .  A
C691        H703   1.083       .  S
C692        H704   1.080   1_554  S
C693        C694   1.207       .  T
C694        C695   1.441       .  S
C695        C696   1.399       .  A
C695        C700   1.399       .  A
C696        C697   1.398       .  A
C696        H705   1.084       .  S
C697        C698   1.408       .  A
C697        H706   1.080       .  S
C698        C699   1.409       .  A
C699        C700   1.400       .  A
C699        H707   1.082       .  S
C700        H708   1.083       .  S
C709        C710   1.408       .  A
C709        C714   1.407       .  A
C710        C711   1.399       .  A
C710        H723   1.083       .  S
C711        C712   1.400       .  A
C711        H724   1.083       .  S
C712        C713   1.399       .  A
C712        C715   1.440       .  S
C713        C714   1.398       .  A
C713        H725   1.084       .  S
C714        H726   1.082   1_554  S
C715        C716   1.206       .  T
C716        C717   1.441       .  S
C717        C718   1.399       .  A
C717        C722   1.400       .  A
C718        C719   1.398       .  A
C718        H727   1.084       .  S
C719        C720   1.408       .  A
C719        H728   1.082       .  S
C720        C721   1.407       .  A
C721        C722   1.400       .  A
C721        H729   1.082       .  S
C722        H730   1.083       .  S
C731        C732   1.409       .  A
C731        C736   1.410       .  A
C732        C733   1.401       .  A
C732        H745   1.082       .  S
C733        C734   1.400       .  A
C733        H746   1.083       .  S
C734        C735   1.399       .  A
C734        C737   1.445       .  S
C735        C736   1.400       .  A
C735        H747   1.084       .  S
C736        H748   1.080       .  S
C737        C738   1.209       .  T
C738        C739   1.445       .  S
C739        C740   1.400       .  A
C739        C744   1.400       .  A
C740        C741   1.401       .  A
C740        H749   1.084       .  S
C741        C742   1.409       .  A
C741        H750   1.081       .  S
C742        C743   1.409       .  A
C743        C744   1.401       .  A
C743        H751   1.082       .  S
C744        H752   1.083       .  S
C753        C754   1.408       .  A
C753        C758   1.408       .  A
C754        C755   1.398       .  A
C754        H767   1.081       .  S
C755        C756   1.399       .  A
C755        H768   1.084       .  S
C756        C757   1.399       .  A
C756        C759   1.440       .  S
C757        C758   1.398       .  A
C757        H769   1.084       .  S
C758        H770   1.082       .  S
C759        C760   1.206       .  T
C760        C761   1.440       .  S
C761        C762   1.398       .  A
C761        C766   1.399       .  A
C762        C763   1.398       .  A
C762        H771   1.084       .  S
C763        C764   1.409       .  A
C763        H772   1.080       .  S
C764        C765   1.409       .  A
C765        C766   1.399       .  A
C765        H773   1.081       .  S
C766        H774   1.083       .  S
C775        C776   1.409       .  A
C775        C780   1.408       .  A
C776        C777   1.400       .  A
C776        H789   1.082       .  S
C777        C778   1.399       .  A
C777        H790   1.083       .  S
C778        C779   1.399       .  A
C778        C781   1.441       .  S
C779        C780   1.398       .  A
C779        H791   1.084       .  S
C780        H792   1.080       .  S
C781        C782   1.207       .  T
C782        C783   1.442       .  S
C783        C784   1.400       .  A
C783        C788   1.399       .  A
C784        C785   1.400       .  A
C784        H793   1.084       .  S
C785        C786   1.408       .  A
C785        H794   1.081       .  S
C786        C787   1.407       .  A
C787        C788   1.398       .  A
C787        H795   1.083       .  S
C788        H796   1.083       .  S
C797        C798   1.408       .  A
C797        C802   1.409       .  A
C798        C799   1.398       .  A
C798        H811   1.081       .  S
C799        C800   1.399       .  A
C799        H812   1.083       .  S
C800        C801   1.401       .  A
C800        C803   1.445   1_565  S
C801        C802   1.402       .  A
C801        H813   1.084       .  S
C802        H814   1.082       .  S
C803        C804   1.209       .  T
C804        C805   1.445       .  S
C805        C806   1.400       .  A
C805        C810   1.399       .  A
C806        C807   1.401       .  A
C806        H815   1.083       .  S
C807        C808   1.408       .  A
C807        H816   1.081       .  S
C808        C809   1.410       .  A
C809        C810   1.399       .  A
C809        H817   1.081       .  S
C810        H818   1.084       .  S
C819        C820   1.409       .  A
C819        C824   1.409       .  A
C820        C821   1.398       .  A
C820        H833   1.081       .  S
C821        C822   1.398       .  A
C821        H834   1.084       .  S
C822        C823   1.398       .  A
C822        C825   1.438       .  S
C823        C824   1.398       .  A
C823        H835   1.084       .  S
C824        H836   1.081       .  S
C825        C826   1.205       .  T
C826        C827   1.438       .  S
C827        C828   1.399       .  A
C827        C832   1.399       .  A
C828        C829   1.398       .  A
C828        H837   1.082       .  S
C829        C830   1.407       .  A
C829        H838   1.083       .  S
C830        C831   1.408       .  A
C831        C832   1.398       .  A
C831        H839   1.081       .  S
C832        H840   1.085       .  S
C841        C842   1.409       .  A
C841        C846   1.408       .  A
C842        C843   1.398       .  A
C842        H855   1.080       .  S
C843        C844   1.398       .  A
C843        H856   1.085       .  S
C844        C845   1.400       .  A
C844        C847   1.440       .  S
C845        C846   1.400       .  A
C845        H857   1.082       .  S
C846        H858   1.083       .  S
C847        C848   1.206       .  T
C848        C849   1.440       .  S
C849        C850   1.399       .  A
C849        C854   1.398       .  A
C850        C851   1.398       .  A
C850        H859   1.082       .  S
C851        C852   1.409       .  A
C851        H860   1.082       .  S
C852        C853   1.409       .  A
C853        C854   1.399       .  A
C853        H861   1.080       .  S
C854        H862   1.084       .  S
C863        C864   1.407       .  A
C863        C868   1.408       .  A
C864        C865   1.397       .  A
C864        H877   1.082       .  S
C865        C866   1.398       .  A
C865        H878   1.083       .  S
C866        C867   1.400       .  A
C866        C869   1.439       .  S
C867        C868   1.400       .  A
C867        H879   1.084       .  S
C868        H880   1.081       .  S
C869        C870   1.205       .  T
C870        C871   1.439       .  S
C871        C872   1.397       .  A
C871        C876   1.400       .  A
C872        C873   1.396       .  A
C872        H881   1.085       .  S
C873        C874   1.409       .  A
C873        H882   1.078       .  S
C874        C875   1.408       .  A
C875        C876   1.400       .  A
C875        H883   1.082       .  S
C876        H884   1.082       .  S
C885        C886   1.409       .  A
C885        C890   1.409       .  A
C886        C887   1.401       .  A
C886        H899   1.083       .  S
C887        C888   1.400       .  A
C887        H900   1.081       .  S
C888        C889   1.397       .  A
C888        C891   1.440   1_565  S
C889        C890   1.396       .  A
C889        H901   1.085       .  S
C890        H902   1.078       .  S
C891        C892   1.206       .  T
C892        C893   1.441       .  S
C893        C894   1.400       .  A
C893        C898   1.399       .  A
C894        C895   1.401       .  A
C894        H903   1.084       .  S
C895        C896   1.408       .  A
C895        H904   1.082       .  S
C896        C897   1.406       .  A
C897        C898   1.397       .  A
C897        H905   1.082       .  S
C898        H906   1.083       .  S
C907        C908   1.410       .  A
C907        C912   1.409       .  A
C908        C909   1.399       .  A
C908        H921   1.081       .  S
C909        C910   1.399       .  A
C909        H922   1.083       .  S
C910        C911   1.399       .  A
C910        C913   1.441       .  S
C911        C912   1.399       .  A
C911        H923   1.084       .  S
C912        H924   1.080       .  S
C913        C914   1.207       .  T
C914        C915   1.441       .  S
C915        C916   1.399       .  A
C915        C920   1.399       .  A
C916        C917   1.399       .  A
C916        H925   1.083       .  S
C917        C918   1.409       .  A
C917        H926   1.081       .  S
C918        C919   1.409       .  A
C919        C920   1.399       .  A
C919        H927   1.080       .  S
C920        H928   1.084       .  S
