geometry optimzed in LAMMPS
_audit_creation_date              2020-12-01 
_audit_creation_method            'lammps2cif' 
_symmetry_space_group_name_H-M    'P1' 
_symmetry_Int_Tables_number       1 
_symmetry_cell_setting            triclinic 
loop_ 
_symmetry_equiv_pos_as_xyz 
  x,y,z 
_cell_length_a                    22.85656099 
_cell_length_b                    21.901373530463168 
_cell_length_c                    22.26237995788996 
_cell_angle_alpha                 91.17091310352313 
_cell_angle_beta                  88.74587714436358 
_cell_angle_gamma                 87.920171534509 
loop_ 
_atom_site_label 
_atom_site_type_symbol 
_atom_site_fract_x 
_atom_site_fract_y 
_atom_site_fract_z 
_atom_site_charge 
C1          C  0.77523095  0.48988182  0.05046320     0.88500
C2          C  0.75404604  0.42734996  0.03106530    -0.51800
C3          C  0.72598998  0.42509696  0.97776126     0.11400
C4          C  0.71950282  0.48912586  0.94816177     0.22300
C5          C  0.81282666  0.50811586  0.99447927    -0.52500
C6          C  0.78448566  0.50895179  0.94056762     0.11500
C7          C  0.72117076  0.53261345  0.04989181    -0.52000
C8          C  0.69063460  0.53315681  0.99784342     0.12100
H9          H  0.76161134  0.38701313  0.05779815     0.16600
H10         H  0.69518202  0.48836566  0.90558336     0.02300
H11         H  0.85961629  0.50651996  0.99309897     0.16900
H12         H  0.70540620  0.55746784  0.09018646     0.16700
C13         C  0.48503161  0.78580561  0.07133234     0.88500
C14         C  0.53019416  0.73173958  0.07007888    -0.51800
C15         C  0.52804157  0.69329352  0.02091060     0.11400
C16         C  0.47791638  0.71153774  0.97806057     0.22300
C17         C  0.49287023  0.81704708  0.01014850    -0.52500
C18         C  0.48837896  0.77861105  0.96051133     0.11500
C19         C  0.42606282  0.75422462  0.06548324    -0.52000
C20         C  0.42150449  0.71480170  0.01777791     0.12100
H21         H  0.55932318  0.72246592  0.10693745     0.16600
H22         H  0.47418217  0.68052544  0.93898395     0.02300
H23         H  0.49592029  0.86611788  0.00753108     0.16900
H24         H  0.39361641  0.75432828  0.10175646     0.16700
C25         C  0.05808022  0.49774712  0.77811275     0.88500
C26         C  0.05825699  0.55852949  0.74543566    -0.51800
C27         C  0.01050221  0.57161743  0.71101853     0.11400
C28         C  0.96434884  0.52103767  0.71471116     0.22300
C29         C  0.00031263  0.50021779  0.81549274    -0.52500
C30         C  0.95072834  0.51298534  0.78332463     0.11500
C31         C  0.04733908  0.45072216  0.72679403    -0.52000
C32         C  0.99867914  0.46165996  0.69357026     0.12100
H33         H  0.09809984  0.58370331  0.74055577     0.16600
H34         H  0.92474011  0.53122950  0.68826318     0.02300
H35         H  0.99853772  0.48973912  0.86289481     0.16900
H36         H  0.07908335  0.41468472  0.71339195     0.16700
C37         C  0.44093135  0.97931251  0.69462466     0.88500
C38         C  0.43048090  0.03368719  0.73758789    -0.51800
C39         C  0.46590457  0.03694375  0.78568385     0.11400
C40         C  0.50694793  0.97759723  0.78873812     0.22300
C41         C  0.50621800  0.97712102  0.68000264    -0.52500
C42         C  0.54098408  0.97562429  0.72846142     0.11500
C43         C  0.43143777  0.92367749  0.73364042    -0.52000
C44         C  0.46666909  0.92033817  0.78319998     0.12100
H45         H  0.39984636  0.07029607  0.72614046     0.16600
H46         H  0.53764149  0.97695047  0.82554846     0.02300
H47         H  0.52374024  0.98000230  0.63446891     0.16900
H48         H  0.40114183  0.88897893  0.72206294     0.16700
C49         C  0.70806017  0.99135270  0.59049578     0.88500
C50         C  0.74273957  0.04966289  0.58039457    -0.51800
C51         C  0.77772314  0.05032291  0.53027883     0.11400
C52         C  0.77190130  0.99077489  0.49123294     0.22300
C53         C  0.67242323  0.98693294  0.53274335    -0.52500
C54         C  0.70483709  0.98751947  0.47977470     0.11500
C55         C  0.75478931  0.93985535  0.58575255    -0.52000
C56         C  0.78772736  0.93712203  0.53384585     0.12100
H57         H  0.74649059  0.08593483  0.61339706     0.16600
H58         H  0.79743434  0.98898427  0.44877798     0.02300
H59         H  0.62532856  0.99485050  0.53376918     0.16900
H60         H  0.76369406  0.90982106  0.62301921     0.16700
C61         C  0.07467952  0.78665655  0.47151080     0.88500
C62         C  0.06424283  0.73478792  0.42641526    -0.51800
C63         C  0.01389405  0.70430137  0.43538352     0.11400
C64         C  0.97707466  0.72998429  0.49084287     0.22300
C65         C  0.01928993  0.82840016  0.47115597    -0.52500
C66         C  0.96713622  0.79991015  0.48124141     0.11500
C67         C  0.06876610  0.75755434  0.53380435    -0.52000
C68         C  0.01934173  0.72579287  0.54411669     0.12100
H69         H  0.09745712  0.71935912  0.39327960     0.16600
H70         H  0.93550882  0.70736852  0.49972528     0.02300
H71         H  0.02241444  0.87712709  0.47796822     0.16900
H72         H  0.10372039  0.75654039  0.56599869     0.16700
C73         C  0.20017952  0.47905514  0.04863605     0.88500
C74         C  0.22617347  0.54250472  0.05352243    -0.51800
C75         C  0.26508422  0.55618353  0.00833673     0.11400
C76         C  0.27278809  0.50386462  0.96028435     0.22300
C77         C  0.17354290  0.47636270  0.98603288    -0.52500
C78         C  0.20966347  0.49109139  0.93943617     0.11500
C79         C  0.25429594  0.43511155  0.04293804    -0.52000
C80         C  0.29295246  0.44684571  0.99712923     0.12100
H81         H  0.22438828  0.56946022  0.09450932     0.16600
H82         H  0.30211873  0.51550098  0.92253213     0.02300
H83         H  0.12877944  0.46319237  0.97879587     0.16900
H84         H  0.26342375  0.40013456  0.07570379     0.16700
O85         O  0.10667616  0.68215713  0.95451177    -0.69800
O86         O  0.97979845  0.66457320  0.06884564    -0.70000
O87         O  0.09715741  0.66702289  0.07829981    -0.69900
O88         O  0.98816386  0.67889807  0.94943844    -0.69900
O89         O  0.02084177  0.58777973  0.92283914    -0.69900
O90         O  0.07915826  0.57048195  0.07651234    -0.69900
O91         O  0.97648425  0.57347808  0.02919170    -0.69800
O92         O  0.12650027  0.58729545  0.97172974    -0.70000
V93         V  0.04368724  0.67376899  0.01282711     1.35200
V94         V  0.05092414  0.58102416  0.00000124     1.35200
C95         C  0.13781315  0.63384410  0.94333207     0.79400
C96         C  0.95495537  0.61384136  0.06490058     0.79500
C97         C  0.10225948  0.61466663  0.10210250     0.79400
C98         C  0.98583877  0.63237462  0.91471099     0.79300
N99         N  0.86889867  0.53660926  0.86462160    -0.01500
C100        C  0.88927533  0.51096224  0.81090566     0.01100
C101        C  0.84919489  0.47002743  0.79087285    -0.21800
C102        C  0.80450598  0.46857934  0.83364071    -0.22000
C103        C  0.81776818  0.50842900  0.87997445     0.01000
H104        H  0.85462342  0.43976683  0.75227022     0.14800
H105        H  0.76875867  0.43750798  0.83317396     0.14800
C106        C  0.03349083  0.46868632  0.21002252     0.88500
C107        C  0.02446018  0.41295339  0.24908650    -0.51800
C108        C  0.97381141  0.41350012  0.28269480     0.11400
C109        C  0.93967379  0.47649888  0.28076548     0.22300
C110        C  0.97550920  0.47695742  0.17745091    -0.52500
C111        C  0.92579494  0.48263317  0.21332266     0.11500
C112        C  0.03360460  0.52236717  0.25490880    -0.52000
C113        C  0.98555638  0.52701159  0.29332639     0.12100
H114        H  0.05385080  0.37287695  0.24543657     0.16600
H115        H  0.90017233  0.48029128  0.31045209     0.02300
H116        H  0.97536410  0.47265046  0.12922462     0.16900
H117        H  0.07110681  0.55034106  0.26138874     0.16700
N118        N  0.85103329  0.50999145  0.13403396    -0.01500
C119        C  0.80061967  0.48677656  0.11498301     0.01100
C120        C  0.77768529  0.45330202  0.16197239    -0.21800
C121        C  0.81851981  0.45225433  0.20751533    -0.22000
C122        C  0.86492559  0.48588637  0.18783406     0.01000
H123        H  0.73793069  0.42795845  0.16133660     0.14800
H124        H  0.81681958  0.42504181  0.24751308     0.14800
N125        N  0.14915336  0.51933484  0.84676002    -0.01500
C126        C  0.11518542  0.48159942  0.81286116     0.01100
C127        C  0.13641850  0.42193050  0.81838456    -0.21800
C128        C  0.18282100  0.42260746  0.85648069    -0.22000
C129        C  0.18912779  0.48222350  0.87596805     0.01000
H130        H  0.11754854  0.38095460  0.80062043     0.14800
H131        H  0.20390682  0.38241630  0.87515904     0.14800
O132        O  0.39812662  0.59090490  0.82109659    -0.69800
O133        O  0.52945419  0.47572341  0.81301043    -0.70000
O134        O  0.41247763  0.46613355  0.80880911    -0.69900
O135        O  0.51813353  0.59784317  0.82271394    -0.69900
O136        O  0.52337813  0.57800331  0.91720864    -0.69900
O137        O  0.39937575  0.47343379  0.90488408    -0.69900
O138        O  0.51129464  0.46105267  0.90759382    -0.69800
O139        O  0.40809604  0.59211598  0.91746027    -0.70000
V140        V  0.46397616  0.53305983  0.81707157     1.35200
V141        V  0.46031154  0.52674941  0.90972572     1.35200
C142        C  0.38168181  0.61145208  0.87287135     0.79400
C143        C  0.54182757  0.44906835  0.86138839     0.79500
C144        C  0.39026567  0.44548791  0.85651391     0.79400
C145        C  0.54293950  0.60566883  0.87258130     0.79300
N146        N  0.60909231  0.61587453  0.98390360    -0.01500
C147        C  0.62847042  0.55924822  0.00171103     0.01100
C148        C  0.59107217  0.54059012  0.04727137    -0.21800
C149        C  0.54942414  0.58671497  0.05846696    -0.22000
C150        C  0.56123976  0.63275949  0.01918634     0.01000
H151        H  0.59699613  0.50006701  0.07384270     0.14800
H152        H  0.51573925  0.58752385  0.09335556     0.14800
C153        C  0.51329845  0.21783265  0.03762708     0.88500
C154        C  0.47030128  0.27288692  0.03539702    -0.51800
C155        C  0.47171770  0.30545464  0.98371293     0.11400
C156        C  0.52003870  0.27969893  0.93780924     0.22300
C157        C  0.50080559  0.18084851  0.98025170    -0.52500
C158        C  0.50511927  0.21172337  0.92811654     0.11500
C159        C  0.57365296  0.24343786  0.02556826    -0.52000
C160        C  0.57874547  0.27494242  0.97305625     0.12100
H161        H  0.44095407  0.28576983  0.07299459     0.16600
H162        H  0.52280534  0.30545682  0.89553467     0.02300
H163        H  0.48727343  0.13378597  0.98092502     0.16900
H164        H  0.61037584  0.23594255  0.05453309     0.16700
O165        O  0.60763279  0.06605396  0.10822485    -0.69800
O166        O  0.57523151  0.97674710  0.97387595    -0.70000
O167        O  0.59302288  0.95075199  0.08417795    -0.69900
O168        O  0.59146905  0.09188252  0.99492072    -0.69900
O169        O  0.67404689  0.05966115  0.95372452    -0.69900
O170        O  0.68734807  0.95501780  0.08964803    -0.69900
O171        O  0.66423436  0.93895666  0.97085122    -0.69800
O172        O  0.69461722  0.07928631  0.07271930    -0.70000
V173        V  0.59312926  0.02136747  0.04034896     1.35200
V174        V  0.68080031  0.00836207  0.02218114     1.35200
C175        C  0.65211532  0.09690393  0.10769297     0.79400
C176        C  0.61158725  0.93721884  0.95327195     0.79500
C177        C  0.63994784  0.93120579  0.10620921     0.79400
C178        C  0.62772930  0.09306268  0.95167514     0.79300
N179        N  0.49839972  0.85258120  0.87198423    -0.01500
C180        C  0.48085289  0.79959139  0.89645998     0.01100
C181        C  0.44331996  0.77251976  0.85707943    -0.21800
C182        C  0.43507067  0.81178060  0.81000133    -0.22000
C183        C  0.46818983  0.86266213  0.82091664     0.01000
H184        H  0.42042019  0.73105820  0.86379657     0.14800
H185        H  0.40555132  0.80421569  0.77357190     0.14800
C186        C  0.52477176  0.06587520  0.21223546     0.88500
C187        C  0.58033487  0.06902532  0.24991762    -0.51800
C188        C  0.58702705  0.02258958  0.29070383     0.11400
C189        C  0.53708550  0.97568947  0.28729669     0.22300
C190        C  0.52720823  0.00204130  0.18276719    -0.52500
C191        C  0.53459996  0.95384973  0.22016315     0.11500
C192        C  0.47552371  0.06244138  0.25936179    -0.52000
C193        C  0.48036099  0.01561554  0.29803165     0.12100
H194        H  0.60801358  0.10811287  0.24995934     0.16600
H195        H  0.54141553  0.93782374  0.31912377     0.02300
H196        H  0.51188613  0.99561343  0.13735276     0.16900
H197        H  0.44044290  0.09727554  0.26407280     0.16700
N198        N  0.53232671  0.85475099  0.15511866    -0.01500
C199        C  0.50985342  0.89447370  0.19947529     0.01100
C200        C  0.44984706  0.89075651  0.20178748    -0.21800
C201        C  0.43445325  0.85058130  0.15762683    -0.22000
C202        C  0.48544072  0.82839197  0.12847272     0.01000
H203        H  0.41954056  0.92177412  0.22582837     0.14800
H204        H  0.38973569  0.84385238  0.14508164     0.14800
N205        N  0.50904144  0.12411708  0.85174669    -0.01500
C206        C  0.46565838  0.09849153  0.81966557     0.01100
C207        C  0.41936242  0.14160498  0.81698511    -0.21800
C208        C  0.43449671  0.19325567  0.84799621    -0.22000
C209        C  0.48894386  0.18119701  0.87075710     0.01000
H210        H  0.37697661  0.13586661  0.79749399     0.14800
H211        H  0.40552183  0.23211238  0.85929818     0.14800
O212        O  0.90496430  0.47595710  0.56739104    -0.69800
O213        O  0.91200696  0.60781301  0.46429884    -0.70000
O214        O  0.91631089  0.59428533  0.58202010    -0.69900
O215        O  0.90387329  0.49215217  0.45150368    -0.69900
O216        O  0.81014539  0.48604030  0.46668661    -0.69900
O217        O  0.82452888  0.62134020  0.57805618    -0.69900
O218        O  0.81806743  0.60797976  0.45558900    -0.69800
O219        O  0.81350125  0.49745394  0.58684185    -0.70000
V220        V  0.90740331  0.54302823  0.51682590     1.35200
V221        V  0.81716435  0.55371692  0.52204906     1.35200
C222        C  0.85869256  0.46380117  0.59548007     0.79400
C223        C  0.86734435  0.62459404  0.43617975     0.79500
C224        C  0.87485943  0.62917835  0.59977630     0.79400
C225        C  0.85727970  0.46637534  0.44071624     0.79300
N226        N  0.99426608  0.65602678  0.63253430    -0.01500
C227        C  0.02304354  0.60586733  0.65498928     0.01100
C228        C  0.07313276  0.59182646  0.62077421    -0.21800
C229        C  0.07509762  0.63261889  0.57570270    -0.22000
C230        C  0.02627648  0.67134323  0.58279260     0.01000
H231        H  0.10675798  0.55735152  0.62967882     0.14800
H232        H  0.11083513  0.63634538  0.54350786     0.14800
O233        O  0.44561996  0.90630013  0.53996415    -0.69800
O234        O  0.57372855  0.91938563  0.43178281    -0.70000
O235        O  0.45785100  0.91863100  0.42289832    -0.69900
O236        O  0.56096568  0.90781760  0.54872674    -0.74700
O237        O  0.57332987  0.80978529  0.53399622    -0.69900
O238        O  0.45688491  0.82020877  0.41306674    -0.69900
O239        O  0.57516163  0.82131303  0.41511455    -0.69800
O240        O  0.45395592  0.80748670  0.53352559    -0.70000
V241        V  0.50957619  0.91089069  0.48557464     1.35200
V242        V  0.51455536  0.81613972  0.47424917     1.35200
C243        C  0.42800826  0.85502227  0.55574896     0.79400
C244        C  0.59654133  0.87262563  0.40520721     0.79500
C245        C  0.43842531  0.87249832  0.39698383     0.79400
C246        C  0.58726374  0.85850605  0.56073993     0.79300
N247        N  0.63468870  0.95176387  0.67311016    -0.01500
C248        C  0.60485086  0.98067463  0.71975437     0.01100
C249        C  0.62952984  0.03483945  0.73403052    -0.21800
C250        C  0.67240625  0.04289522  0.69164718    -0.22000
C251        C  0.67349097  0.99288796  0.65136963     0.01000
H252        H  0.61198919  0.06984786  0.76497007     0.14800
H253        H  0.69547554  0.08476551  0.68979198     0.14800
C254        C  0.21600028  0.05683852  0.48702797     0.88500
C255        C  0.26275717  0.06474327  0.43784790    -0.51800
C256        C  0.30174427  0.01659356  0.42947134     0.11400
C257        C  0.28895032  0.96275514  0.47071651     0.22300
C258        C  0.18611044  0.99737799  0.47103572    -0.52500
C259        C  0.22389783  0.94779895  0.46099334     0.11500
C260        C  0.24973093  0.03842290  0.54308899    -0.52000
C261        C  0.28961910  0.99104272  0.53471588     0.12100
H262        H  0.26856790  0.10820666  0.41617258     0.16600
H263        H  0.31998348  0.92284581  0.46422407     0.02300
H264        H  0.13991323  0.99141515  0.47825434     0.16900
H265        H  0.24812035  0.06556034  0.58451156     0.16700
O266        O  0.00132779  0.06027816  0.32046857    -0.69800
O267        O  0.87583680  0.94703618  0.33010175    -0.70000
O268        O  0.88164197  0.07281507  0.33263735    -0.69900
O269        O  0.99293571  0.93791605  0.31590446    -0.69900
O270        O  0.01361824  0.95797839  0.40888251    -0.69900
O271        O  0.87623810  0.05159721  0.42691118    -0.69900
O272        O  0.90353299  0.93390616  0.42144477    -0.69800
O273        O  0.98484393  0.07519073  0.41588868    -0.70000
V274        V  0.93724998  0.00499863  0.32481298     1.35200
V275        V  0.94425245  0.00446879  0.41674117     1.35200
C276        C  0.01578670  0.08442333  0.37016696     0.79400
C277        C  0.87298243  0.91730674  0.37863050     0.79500
C278        C  0.86030538  0.08486047  0.38484100     0.79400
C279        C  0.02472961  0.92812934  0.36070772     0.79300
N280        N  0.86529167  0.85595185  0.49348914    -0.01500
C281        C  0.91895051  0.83652796  0.51394304     0.01100
C282        C  0.93026739  0.86705155  0.56716080    -0.21800
C283        C  0.88368502  0.90672478  0.57954388    -0.22000
C284        C  0.84456656  0.90037852  0.53353476     0.01000
H285        H  0.96977187  0.86282216  0.59293725     0.14800
H286        H  0.87916058  0.93761110  0.61800146     0.14800
C287        C  0.04853469  0.21702945  0.49664486     0.88500
C288        C  0.03644240  0.27176728  0.53944156    -0.51800
C289        C  0.98188959  0.29897492  0.53731721     0.11400
C290        C  0.94132400  0.26482392  0.49236318     0.22300
C291        C  0.00090585  0.17318551  0.51379499    -0.52500
C292        C  0.94440832  0.19665618  0.51167271     0.11500
C293        C  0.03178628  0.24014585  0.43494955    -0.52000
C294        C  0.97549735  0.26275124  0.43098096     0.12100
H295        H  0.06984004  0.29219299  0.56615919     0.16600
H296        H  0.89612421  0.28490941  0.49058217     0.02300
H297        H  0.01137795  0.12714628  0.52842613     0.16900
H298        H  0.06247166  0.23915207  0.39708107     0.16700
N299        N  0.84892142  0.13689824  0.50624144    -0.01500
C300        C  0.83167299  0.08688651  0.53730360     0.01100
C301        C  0.86639994  0.07910972  0.58679351    -0.21800
C302        C  0.90617098  0.12408389  0.58616595    -0.22000
C303        C  0.89607307  0.15876806  0.53588671     0.01000
H304        H  0.86221888  0.04499307  0.62088379     0.14800
H305        H  0.94141816  0.12879301  0.61744603     0.14800
N306        N  0.14957586  0.86801731  0.43626892    -0.01500
C307        C  0.13598939  0.81398089  0.46188353     0.01100
C308        C  0.18524964  0.79243978  0.49191904    -0.21800
C309        C  0.22625732  0.83693346  0.49021225    -0.22000
C310        C  0.20227851  0.88406875  0.45781321     0.01000
H311        H  0.18971817  0.75072692  0.51684893     0.14800
H312        H  0.26660997  0.83698526  0.51476283     0.14800
N313        N  0.36424913  0.96082534  0.61188158    -0.01500
C314        C  0.34413822  0.99710231  0.56768948     0.01100
C315        C  0.37455703  0.05021459  0.56569887    -0.21800
C316        C  0.41583505  0.04617667  0.60836073    -0.22000
C317        C  0.40779135  0.99185621  0.63784602     0.01000
H318        H  0.36410977  0.09026515  0.54024230     0.14800
H319        H  0.44556252  0.08161480  0.62030399     0.14800
N320        N  0.96137232  0.38285703  0.61723409    -0.01500
C321        C  0.99469301  0.43113559  0.63263204     0.01100
C322        C  0.03151267  0.44379168  0.58498235    -0.21800
C323        C  0.01970162  0.40355138  0.53905988    -0.22000
C324        C  0.97741179  0.36451326  0.55976359     0.01000
H325        H  0.06595459  0.47595440  0.58427934     0.14800
H326        H  0.04556870  0.39759949  0.49788014     0.14800
N327        N  0.13020774  0.13549929  0.47041797    -0.01500
C328        C  0.11114964  0.18879501  0.49840903     0.01100
C329        C  0.15450480  0.20840125  0.53620422    -0.21800
C330        C  0.19809986  0.16374454  0.53485063    -0.22000
C331        C  0.18028626  0.11694907  0.49747790     0.01000
H332        H  0.15479178  0.24895362  0.56447760     0.14800
H333        H  0.23787344  0.16506824  0.56020603     0.14800
N334        N  0.65429649  0.98759376  0.37667495    -0.01500
C335        C  0.62442306  0.03126053  0.34533452     0.01100
C336        C  0.62804698  0.08713677  0.37503172    -0.21800
C337        C  0.66058835  0.07757735  0.42559803    -0.22000
C338        C  0.67669003  0.01616859  0.42591864     0.01000
H339        H  0.60723882  0.13007363  0.36260450     0.14800
H340        H  0.66975891  0.11150304  0.45980513     0.14800
N341        N  0.97572180  0.62072558  0.36514593    -0.01500
C342        C  0.99270802  0.56124048  0.35173727     0.01100
C343        C  0.03850669  0.54437381  0.38831648    -0.21800
C344        C  0.05054264  0.59424407  0.42373877    -0.22000
C345        C  0.01117822  0.64068562  0.40943383     0.01000
H346        H  0.06452062  0.50208276  0.38512197     0.14800
H347        H  0.08664015  0.59703880  0.45388383     0.14800
N348        N  0.65051228  0.35377153  0.93911533    -0.01500
C349        C  0.70603658  0.36441258  0.95435489     0.01100
C350        C  0.73269541  0.30897170  0.96914972    -0.21800
C351        C  0.69004068  0.26579513  0.96815353    -0.22000
C352        C  0.63819552  0.29562417  0.95262732     0.01000
H353        H  0.77597517  0.30211003  0.98714793     0.14800
H354        H  0.69479966  0.21997320  0.98515660     0.14800
N355        N  0.53852787  0.15796032  0.13717390    -0.01500
C356        C  0.50693262  0.11466612  0.16653634     0.01100
C357        C  0.45189284  0.11140146  0.14204175    -0.21800
C358        C  0.44828716  0.15258003  0.09779434    -0.22000
C359        C  0.50188093  0.17944030  0.09324398     0.01000
H360        H  0.41819044  0.07994714  0.15372616     0.14800
H361        H  0.41150660  0.15907806  0.06845316     0.14800
N362        N  0.33696618  0.64328514  0.99382883    -0.01500
C363        C  0.38305752  0.66201120  0.02703285     0.01100
C364        C  0.38735029  0.62829900  0.07860478    -0.21800
C365        C  0.34339020  0.58797710  0.07777999    -0.22000
C366        C  0.31385328  0.59638376  0.02494074     0.01000
H367        H  0.41806665  0.63415509  0.11439652     0.14800
H368        H  0.33356060  0.55596971  0.11265204     0.14800
N369        N  0.12911696  0.49062313  0.14523273    -0.01500
C370        C  0.15567418  0.45922797  0.09691000     0.01100
C371        C  0.12945320  0.40389185  0.08875159    -0.21800
C372        C  0.08462050  0.40179980  0.12980754    -0.22000
C373        C  0.08448200  0.45501079  0.16453177     0.01000
H374        H  0.13951895  0.37009657  0.05351310     0.14800
H375        H  0.05348325  0.36582036  0.13261446     0.14800
N376        N  0.93500152  0.33992454  0.35970669    -0.01500
C377        C  0.95303179  0.28216059  0.37133489     0.01100
C378        C  0.97146562  0.25381259  0.31779215    -0.21800
C379        C  0.96960050  0.29791475  0.27441665    -0.22000
C380        C  0.95124424  0.35271379  0.30269108     0.01000
H381        H  0.99245963  0.20889682  0.31241865     0.14800
H382        H  0.98878993  0.29235484  0.22967378     0.14800
N383        N  0.39189417  0.99238264  0.36301841    -0.01500
C384        C  0.44356487  0.02035810  0.35343855     0.01100
C385        C  0.44483637  0.07275272  0.38901021    -0.21800
C386        C  0.39225304  0.07824244  0.41949479    -0.22000
C387        C  0.36090033  0.02770222  0.40399656     0.01000
H388        H  0.47760120  0.10720679  0.38731343     0.14800
H389        H  0.37741483  0.11708570  0.44711517     0.14800
N390        N  0.37984267  0.37384786  0.96474816    -0.01500
C391        C  0.35470301  0.42043446  0.99942747     0.01100
C392        C  0.39511062  0.44112346  0.03938799    -0.21800
C393        C  0.44632952  0.40753808  0.02859573    -0.22000
C394        C  0.43663783  0.36519745  0.98312808     0.01000
H395        H  0.38798827  0.47496129  0.07468184     0.14800
H396        H  0.48482277  0.40911166  0.05599694     0.14800
C397        C  0.07181570  0.11229783  0.38208632    -0.14500
C398        C  0.09485397  0.09692157  0.43543230    -0.29600
H399        H  0.08961306  0.14707560  0.35374202     0.14600
H400        H  0.07589609  0.06009097  0.46016936     0.15100
C401        C  0.11924651  0.90286964  0.39162971    -0.14500
C402        C  0.07371749  0.88365471  0.36089835    -0.29600
H403        H  0.12883336  0.95067034  0.38708321     0.14600
H404        H  0.06469278  0.83566245  0.35589657     0.15100
C405        C  0.82280434  0.13924663  0.39935948    -0.14500
C406        C  0.81992167  0.16420257  0.45556161    -0.29600
H407        H  0.80197154  0.16352992  0.36306810     0.14600
H408        H  0.79657149  0.20789267  0.46257854     0.15100
C409        C  0.83588334  0.83422776  0.44047273    -0.14500
C410        C  0.83686938  0.86381604  0.38751516    -0.29600
H411        H  0.81069537  0.79332966  0.44390922     0.14600
H412        H  0.81228955  0.84632469  0.35011884     0.15100
C413        C  0.37272080  0.93671275  0.33515184    -0.14500
C414        C  0.39452798  0.88094070  0.34999891    -0.29600
H415        H  0.33739005  0.93958728  0.30341928     0.14600
H416        H  0.37758287  0.84070624  0.32814331     0.15100
C417        C  0.64735518  0.87690009  0.36401444    -0.14500
C418        C  0.67401040  0.92903134  0.35218107    -0.29600
H419        H  0.66485799  0.83496773  0.34246418     0.14600
H420        H  0.71127932  0.92724402  0.32103259     0.15100
C421        C  0.63435891  0.86202012  0.60333091    -0.14500
C422        C  0.61906830  0.89030003  0.65517188    -0.29600
H423        H  0.67625770  0.86786331  0.58234031     0.14600
H424        H  0.57967766  0.87334905  0.67638559     0.15100
C425        C  0.34749934  0.89936595  0.62260667    -0.14500
C426        C  0.37752642  0.85052165  0.59806314    -0.29600
H427        H  0.30960720  0.89213298  0.65149097     0.14600
H428        H  0.36297358  0.80526798  0.60866257     0.15100
C429        C  0.87401433  0.65773296  0.37927173    -0.14500
C430        C  0.92391787  0.65318766  0.34514907    -0.29600
H431        H  0.83577358  0.68114514  0.36127982     0.14600
H432        H  0.92484889  0.67395413  0.30131044     0.15100
C433        C  0.86358758  0.41212083  0.40255064    -0.14500
C434        C  0.91641854  0.38316670  0.40410329    -0.29600
H435        H  0.83029524  0.39940671  0.37108251     0.14600
H436        H  0.94783082  0.39398024  0.43824309     0.15100
C437        C  0.88788900  0.67786662  0.64352245    -0.14500
C438        C  0.94366696  0.68933735  0.65880486    -0.29600
H439        H  0.85199583  0.70578407  0.66333470     0.14600
H440        H  0.95088788  0.72597265  0.69104680     0.15100
C441        C  0.85767714  0.41022007  0.63529830    -0.14500
C442        C  0.90491316  0.37238146  0.64424462    -0.29600
H443        H  0.81629993  0.39980064  0.65693699     0.14600
H444        H  0.90006340  0.33290206  0.67235337     0.15100
C445        C  0.64768480  0.15508353  0.14143429    -0.14500
C446        C  0.59432322  0.18259320  0.15475982    -0.29600
H447        H  0.68726620  0.17867719  0.15189748     0.14600
H448        H  0.59348489  0.22764568  0.17604641     0.15100
C449        C  0.60603671  0.11901422  0.89622529    -0.14500
C450        C  0.55852306  0.09137735  0.87533638    -0.29600
H451        H  0.61470798  0.16601168  0.88567738     0.14600
H452        H  0.55058288  0.04582884  0.89023014     0.15100
C453        C  0.59302095  0.84340332  0.13609239    -0.14500
C454        C  0.63497230  0.88248482  0.14969908    -0.29600
H455        H  0.59918283  0.82169697  0.09203086     0.14600
H456        H  0.63865877  0.89807612  0.19598131     0.15100
C457        C  0.58787610  0.89032990  0.91373817    -0.14500
C458        C  0.53032491  0.89725952  0.90183659    -0.29600
H459        H  0.61372544  0.85003771  0.89897124     0.14600
H460        H  0.50466064  0.93806850  0.91570435     0.15100
C461        C  0.35910859  0.38737273  0.85809304    -0.14500
C462        C  0.35670969  0.35313337  0.90828355    -0.29600
H463        H  0.34226912  0.36897883  0.81652438     0.14600
H464        H  0.33620583  0.30926419  0.90623386     0.15100
C465        C  0.33267990  0.65595623  0.88401180    -0.14500
C466        C  0.31324068  0.67117934  0.94057846    -0.29600
H467        H  0.31127830  0.67661665  0.84598714     0.14600
H468        H  0.27616877  0.70334525  0.94613353     0.15100
C469        C  0.62672907  0.64602855  0.92981333    -0.14500
C470        C  0.59486090  0.64388454  0.87909898    -0.29600
H471        H  0.66662513  0.67141542  0.92986384     0.14600
H472        H  0.61017750  0.66813413  0.84007360     0.15100
C473        C  0.60873018  0.39953590  0.92566816    -0.14500
C474        C  0.59147144  0.40723784  0.86890727    -0.29600
H475        H  0.59029792  0.42670461  0.96337355     0.14600
H476        H  0.61206037  0.38199613  0.83115617     0.15100
C477        C  0.13480176  0.60297859  0.15709727    -0.14500
C478        C  0.14808147  0.54554374  0.17542935    -0.29600
H479        H  0.15067299  0.64157907  0.18251590     0.14600
H480        H  0.17253819  0.54036924  0.21638140     0.15100
C481        C  0.14152109  0.58565750  0.85085310    -0.14500
C482        C  0.17207619  0.62079700  0.88839397    -0.29600
H483        H  0.09822632  0.60413316  0.84113187     0.14600
H484        H  0.21708184  0.60643008  0.89592420     0.15100
C485        C  0.89081795  0.53810878  0.09606083    -0.14500
C486        C  0.90510192  0.59670521  0.10196659    -0.29600
H487        H  0.91430236  0.50649141  0.06541202     0.14600
H488        H  0.88395626  0.62769480  0.13509428     0.15100
C489        C  0.93646485  0.62116056  0.87584200    -0.14500
C490        C  0.89631194  0.58395356  0.89911269    -0.29600
H491        H  0.94351756  0.62396201  0.82771578     0.14600
H492        H  0.88962973  0.58555059  0.94734914     0.15100
loop_ 
_geom_bond_atom_site_label_1 
_geom_bond_atom_site_label_2 
_geom_bond_distance 
_geom_bond_site_symmetry_2 
_ccdc_geom_bond_type 
C1            C2   1.526       .  S
C1            C7   1.523       .  S
C1            C5   1.565   1_554  S
C1          C119   1.563       .  S
C2            H9   1.086       .  S
C2            C3   1.362   1_554  D
C3            C4   1.565       .  S
C3          C349   1.507       .  S
C4            C8   1.571       .  S
C4            C6   1.569       .  S
C4           H10   1.109       .  S
C5           H11   1.069       .  S
C5            C6   1.376       .  D
C6          C103   1.534       .  S
C7           H12   1.087       .  S
C7            C8   1.366   1_554  D
C8          C147   1.512   1_556  S
C13          C14   1.542       .  S
C13          C19   1.544       .  S
C13          C17   1.547       .  S
C13         C202   1.562       .  S
C14          H21   1.086       .  S
C14          C15   1.370       .  D
C15          C16   1.553   1_554  S
C15         C150   1.503       .  S
C16          C20   1.546   1_556  S
C16          C18   1.553       .  S
C16          H22   1.099       .  S
C17          H23   1.082       .  S
C17          C18   1.383   1_554  D
C18         C180   1.518       .  S
C19          H24   1.084       .  S
C19          C20   1.363       .  D
C20         C363   1.492       .  S
C25          C26   1.530       .  S
C25          C31   1.552       .  S
C25          C29   1.544       .  S
C25         C126   1.565       .  S
C26          H33   1.086       .  S
C26          C27   1.372       .  D
C27          C28   1.559   1_455  S
C27         C227   1.496       .  S
C28          C32   1.553       .  S
C28          C30   1.567       .  S
C28          H34   1.109       .  S
C29          H35   1.085   1_455  S
C29          C30   1.377   1_455  D
C30         C100   1.523       .  S
C31          H36   1.085       .  S
C31          C32   1.366   1_455  D
C32         C321   1.506       .  S
C37          C38   1.521   1_565  S
C37          C43   1.530       .  S
C37          C41   1.519       .  S
C37         C317   1.513       .  S
C38          H45   1.083       .  S
C38          C39   1.359       .  D
C39          C40   1.579   1_545  S
C39         C206   1.532       .  S
C40          C44   1.587       .  S
C40          C42   1.535       .  S
C40          H46   1.090       .  S
C41          H47   1.086       .  S
C41          C42   1.354       .  D
C42         C248   1.477       .  S
C43          H48   1.078       .  S
C43          C44   1.382       .  D
C44         C183   1.531       .  S
C49          C50   1.545   1_565  S
C49          C55   1.525       .  S
C49          C53   1.540       .  S
C49         C251   1.553       .  S
C50          H57   1.078       .  S
C50          C51   1.359       .  D
C51          C52   1.564   1_545  S
C51         C300   1.504       .  S
C52          C56   1.562       .  S
C52          C54   1.563       .  S
C52          H58   1.099       .  S
C53          H59   1.084       .  S
C53          C54   1.379       .  D
C54         C338   1.510   1_565  S
C55          H60   1.087       .  S
C55          C56   1.364       .  D
C56         C284   1.503       .  S
C61          C62   1.529       .  S
C61          C67   1.543       .  S
C61          C65   1.535       .  S
C61         C307   1.556       .  S
C62          H69   1.087       .  S
C62          C63   1.364       .  D
C63          C64   1.562   1_455  S
C63         C345   1.501       .  S
C64          C68   1.548   1_655  S
C64          C66   1.560       .  S
C64          H70   1.103       .  S
C65          H71   1.080       .  S
C65          C66   1.382   1_455  D
C66         C281   1.504       .  S
C67          H72   1.085       .  S
C67          C68   1.366       .  D
C68         C230   1.491       .  S
C73          C74   1.534       .  S
C73          C79   1.541       .  S
C73          C77   1.534   1_554  S
C73         C370   1.543       .  S
C74          H81   1.076       .  S
C74          C75   1.373       .  D
C75          C76   1.554   1_554  S
C75         C366   1.493       .  S
C76          C80   1.569       .  S
C76          C78   1.558       .  S
C76          H82   1.103       .  S
C77          H83   1.088       .  S
C77          C78   1.363       .  D
C78         C129   1.510       .  S
C79          H84   1.086       .  S
C79          C80   1.369   1_554  D
C80         C391   1.508       .  S
O85          V93   1.934   1_556  S
O85          C95   1.271       .  A
O86          V93   1.918   1_655  S
O86          C96   1.268       .  A
O87          V93   1.927       .  S
O87          C97   1.276       .  A
O88          V93   1.921   1_656  S
O88          C98   1.270       .  A
O89          V94   1.871   1_556  S
O89          C98   1.258   1_455  A
O90          V94   1.851       .  S
O90          C97   1.252       .  A
O91          V94   1.822   1_655  S
O91          C96   1.256       .  A
O92          V94   1.836   1_556  S
O92          C95   1.243       .  A
V93          V94   2.046       .  T
C95         C482   1.455       .  S
C96         C486   1.457       .  S
C97         C477   1.469       .  S
C98         C489   1.462       .  S
N99         C103   1.381       .  A
N99         C100   1.375       .  A
N99         C490   1.447       .  S
C100        C101   1.380       .  A
C101        C102   1.383       .  A
C101        H104   1.077       .  S
C102        C103   1.383       .  A
C102        H105   1.082       .  S
C106        C107   1.531       .  S
C106        C112   1.527       .  S
C106        C110   1.531   1_455  S
C106        C373   1.544       .  S
C107        H114   1.086       .  S
C107        C108   1.364   1_455  D
C108        C109   1.562       .  S
C108        C380   1.517       .  S
C109        C113   1.577       .  S
C109        C111   1.549       .  S
C109        H115   1.107       .  S
C110        H116   1.076       .  S
C110        C111   1.375       .  D
C111        C122   1.514       .  S
C112        H117   1.082       .  S
C112        C113   1.377   1_455  D
C113        C342   1.503       .  S
N118        C122   1.358       .  A
N118        C119   1.350       .  A
N118        C485   1.396       .  S
C119        C120   1.393       .  A
C120        C121   1.393       .  A
C120        H123   1.082       .  S
C121        C122   1.382       .  A
C121        H124   1.082       .  S
N125        C129   1.383       .  A
N125        C126   1.379       .  A
N125        C481   1.457       .  S
C126        C127   1.386       .  A
C127        C128   1.373       .  A
C127        H130   1.081       .  S
C128        C129   1.381       .  A
C128        H131   1.083       .  S
O132        V140   1.931       .  S
O132        C142   1.273       .  A
O133        V140   1.918       .  S
O133        C143   1.268       .  A
O134        V140   1.921       .  S
O134        C144   1.266       .  A
O135        V140   1.920       .  S
O135        C145   1.269       .  A
O136        V141   1.867       .  S
O136        C145   1.257       .  A
O137        V141   1.853       .  S
O137        C144   1.253       .  A
O138        V141   1.818       .  S
O138        C143   1.248       .  A
O139        V141   1.833       .  S
O139        C142   1.247       .  A
V140        V141   2.070       .  T
C142        C465   1.471       .  S
C143        C474   1.447       .  S
C144        C461   1.482       .  S
C145        C470   1.485       .  S
N146        C150   1.368   1_556  A
N146        C147   1.371   1_556  A
N146        C469   1.442       .  S
C147        C148   1.390       .  A
C148        C149   1.378       .  A
C148        H151   1.083       .  S
C149        C150   1.378       .  A
C149        H152   1.081       .  S
C153        C154   1.530       .  S
C153        C159   1.528       .  S
C153        C157   1.536   1_554  S
C153        C359   1.534       .  S
C154        H161   1.087       .  S
C154        C155   1.366   1_554  D
C155        C156   1.570       .  S
C155        C394   1.510       .  S
C156        C160   1.570       .  S
C156        C158   1.551       .  S
C156        H162   1.109       .  S
C157        H163   1.087       .  S
C157        C158   1.359       .  D
C158        C209   1.489       .  S
C159        H164   1.079       .  S
C159        C160   1.374   1_554  D
C160        C352   1.511       .  S
O165        V173   1.827       .  S
O165        C175   1.241       .  A
O166        V173   1.819   1_566  S
O166        C176   1.251       .  A
O167        V173   1.845   1_565  S
O167        C177   1.254       .  A
O168        V173   1.863   1_556  S
O168        C178   1.258       .  A
O169        V174   1.917   1_556  S
O169        C178   1.267       .  A
O170        V174   1.927   1_565  S
O170        C177   1.270       .  A
O171        V174   1.936   1_566  S
O171        C176   1.275       .  A
O172        V174   1.939       .  S
O172        C175   1.275       .  A
V173        V174   2.044       .  T
C175        C445   1.465       .  S
C176        C457   1.465       .  S
C177        C454   1.461       .  S
C178        C449   1.459       .  S
N179        C183   1.361       .  A
N179        C180   1.362       .  A
N179        C458   1.406       .  S
C180        C181   1.380       .  A
C181        C182   1.381       .  A
C181        H184   1.076       .  S
C182        C183   1.390       .  A
C182        H185   1.080       .  S
C186        C187   1.540       .  S
C186        C192   1.527       .  S
C186        C190   1.531       .  S
C186        C356   1.541       .  S
C187        H194   1.083       .  S
C187        C188   1.384       .  D
C188        C189   1.565   1_545  S
C188        C335   1.514       .  S
C189        C193   1.549   1_565  S
C189        C191   1.563       .  S
C189        H195   1.105       .  S
C190        H196   1.085   1_545  S
C190        C191   1.366   1_545  D
C191        C199   1.504       .  S
C192        H197   1.088       .  S
C192        C193   1.355       .  D
C193        C384   1.477       .  S
N198        C202   1.376       .  A
N198        C199   1.381       .  A
N198        C453   1.453       .  S
C199        C200   1.377       .  A
C200        C201   1.366       .  A
C200        H203   1.078       .  S
C201        C202   1.389       .  A
C201        H204   1.080       .  S
N205        C209   1.372       .  A
N205        C206   1.365       .  A
N205        C450   1.432       .  S
C206        C207   1.395       .  A
C207        C208   1.372       .  A
C207        H210   1.081       .  S
C208        C209   1.373       .  A
C208        H211   1.081       .  S
O212        V220   1.871       .  S
O212        C222   1.256       .  A
O213        V220   1.861       .  S
O213        C223   1.257       .  A
O214        V220   1.836       .  S
O214        C224   1.248       .  A
O215        V220   1.819       .  S
O215        C225   1.249       .  A
O216        V221   1.922       .  S
O216        C225   1.269       .  A
O217        V221   1.931       .  S
O217        C224   1.274       .  A
O218        V221   1.917       .  S
O218        C223   1.266       .  A
O219        V221   1.919       .  S
O219        C222   1.267       .  A
V220        V221   2.068       .  T
C222        C441   1.486       .  S
C223        C429   1.481       .  S
C224        C437   1.472       .  S
C225        C433   1.448       .  S
N226        C230   1.368   1_655  A
N226        C227   1.369   1_655  A
N226        C438   1.450       .  S
C227        C228   1.383       .  A
C228        C229   1.358       .  A
C228        H231   1.082       .  S
C229        C230   1.381       .  A
C229        H232   1.081       .  S
O233        V241   1.884       .  S
O233        C243   1.261       .  A
O234        V241   1.890       .  S
O234        C244   1.262       .  A
O235        V241   1.855       .  S
O235        C245   1.253       .  A
O236        V241   1.852       .  S
O236        C246   1.253       .  A
O237        V242   1.915       .  S
O237        C246   1.266       .  A
O238        V242   1.917       .  S
O238        C245   1.267       .  A
O239        V242   1.898       .  S
O239        C244   1.263       .  A
O240        V242   1.909       .  S
O240        C243   1.266       .  A
V241        V242   2.084       .  T
C243        C426   1.481       .  S
C244        C417   1.471       .  S
C245        C414   1.475       .  S
C246        C421   1.453       .  S
N247        C251   1.374       .  A
N247        C248   1.362       .  A
N247        C422   1.455       .  S
C248        C249   1.367   1_565  A
C249        C250   1.364       .  A
C249        H252   1.080       .  S
C250        C251   1.400   1_545  A
C250        H253   1.075       .  S
C254        C255   1.530       .  S
C254        C260   1.535       .  S
C254        C258   1.532   1_545  S
C254        C331   1.535       .  S
C255        H262   1.087       .  S
C255        C256   1.363       .  D
C256        C257   1.542   1_545  S
C256        C387   1.485       .  S
C257        C261   1.543       .  S
C257        C259   1.553       .  S
C257        H263   1.111       .  S
C258        H264   1.078       .  S
C258        C259   1.374       .  D
C259        C310   1.498       .  S
C260        H265   1.086       .  S
C260        C261   1.363   1_545  D
C261        C314   1.469       .  S
O266        V274   1.936   1_455  S
O266        C276   1.272       .  A
O267        V274   1.930   1_565  S
O267        C277   1.274       .  A
O268        V274   1.922       .  S
O268        C278   1.269       .  A
O269        V274   1.913   1_565  S
O269        C279   1.264   1_655  A
O270        V275   1.856   1_465  S
O270        C279   1.261       .  A
O271        V275   1.842       .  S
O271        C278   1.251       .  A
O272        V275   1.836   1_565  S
O272        C277   1.250       .  A
O273        V275   1.834       .  S
O273        C276   1.251   1_655  A
V274        V275   2.057       .  T
C276        C397   1.466       .  S
C277        C410   1.472       .  S
C278        C405   1.468       .  S
C279        C402   1.457       .  S
N280        C284   1.371       .  A
N280        C281   1.374       .  A
N280        C409   1.451       .  S
C281        C282   1.382       .  A
C282        C283   1.369       .  A
C282        H285   1.083       .  S
C283        C284   1.382       .  A
C283        H286   1.081       .  S
C287        C288   1.529       .  S
C287        C293   1.525       .  S
C287        C291   1.525       .  S
C287        C328   1.540       .  S
C288        H295   1.082       .  S
C288        C289   1.364   1_455  D
C289        C290   1.575       .  S
C289        C324   1.509       .  S
C290        C294   1.558       .  S
C290        C292   1.562       .  S
C290        H296   1.110       .  S
C291        H297   1.086       .  S
C291        C292   1.375   1_455  D
C292        C303   1.503       .  S
C293        H298   1.084       .  S
C293        C294   1.367   1_455  D
C294        C377   1.498       .  S
N299        C303   1.372       .  A
N299        C300   1.372       .  A
N299        C406   1.450       .  S
C300        C301   1.382       .  A
C301        C302   1.364       .  A
C301        H304   1.081       .  S
C302        C303   1.384       .  A
C302        H305   1.083       .  S
N306        C310   1.362       .  A
N306        C307   1.367       .  A
N306        C401   1.440       .  S
C307        C308   1.395       .  A
C308        C309   1.377       .  A
C308        H311   1.081       .  S
C309        C310   1.376       .  A
C309        H312   1.082       .  S
N313        C317   1.358       .  A
N313        C314   1.355       .  A
N313        C425   1.436       .  S
C314        C315   1.378   1_565  A
C315        C316   1.355       .  A
C315        H318   1.076       .  S
C316        C317   1.387   1_545  A
C316        H319   1.083       .  S
N320        C324   1.371       .  A
N320        C321   1.368       .  A
N320        C442   1.440       .  S
C321        C322   1.378   1_655  A
C322        C323   1.374       .  A
C322        H325   1.075       .  S
C323        C324   1.391   1_455  A
C323        H326   1.083       .  S
N327        C331   1.358       .  A
N327        C328   1.365       .  A
N327        C398   1.423       .  S
C328        C329   1.388       .  A
C329        C330   1.370       .  A
C329        H332   1.078       .  S
C330        C331   1.385       .  A
C330        H333   1.081       .  S
N334        C338   1.369   1_565  A
N334        C335   1.367   1_565  A
N334        C418   1.437       .  S
C335        C336   1.385       .  A
C336        C337   1.378       .  A
C336        H339   1.082       .  S
C337        C338   1.382       .  A
C337        H340   1.082       .  S
N341        C345   1.365   1_655  A
N341        C342   1.371       .  A
N341        C430   1.442       .  S
C342        C343   1.385   1_655  A
C343        C344   1.374       .  A
C343        H346   1.083       .  S
C344        C345   1.380       .  A
C344        H347   1.078       .  S
N348        C352   1.353       .  A
N348        C349   1.348       .  A
N348        C473   1.401       .  S
C349        C350   1.388       .  A
C350        C351   1.383       .  A
C350        H353   1.082       .  S
C351        C352   1.386       .  A
C351        H354   1.082       .  S
N355        C359   1.380       .  A
N355        C356   1.379       .  A
N355        C446   1.461       .  S
C356        C357   1.386       .  A
C357        C358   1.351       .  A
C357        H360   1.083       .  S
C358        C359   1.381       .  A
C358        H361   1.083       .  S
N362        C366   1.366   1_556  A
N362        C363   1.370   1_556  A
N362        C466   1.451       .  S
C363        C364   1.381       .  A
C364        C365   1.362       .  A
C364        H367   1.082       .  S
C365        C366   1.381       .  A
C365        H368   1.082       .  S
N369        C373   1.373       .  A
N369        C370   1.382       .  A
N369        C478   1.451       .  S
C370        C371   1.382       .  A
C371        C372   1.361       .  A
C371        H374   1.083       .  S
C372        C373   1.385       .  A
C372        H375   1.083       .  S
N376        C380   1.352       .  A
N376        C377   1.348       .  A
N376        C434   1.403       .  S
C377        C378   1.383       .  A
C378        C379   1.380       .  A
C378        H381   1.082       .  S
C379        C380   1.391       .  A
C379        H382   1.082       .  S
N383        C387   1.355   1_565  A
N383        C384   1.365   1_565  A
N383        C413   1.443       .  S
C384        C385   1.382       .  A
C385        C386   1.367       .  A
C385        H388   1.083       .  S
C386        C387   1.382       .  A
C386        H389   1.080       .  S
N390        C394   1.377       .  A
N390        C391   1.369       .  A
N390        C462   1.445       .  S
C391        C392   1.378   1_556  A
C392        C393   1.374       .  A
C392        H395   1.075       .  S
C393        C394   1.386   1_554  A
C393        H396   1.083       .  S
C397        H399   1.084       .  S
C397        C398   1.353       .  D
C398        H400   1.084       .  S
C401        H403   1.084       .  S
C401        C402   1.334       .  D
C402        H404   1.082       .  S
C405        H407   1.086       .  S
C405        C406   1.354       .  D
C406        H408   1.085       .  S
C409        H411   1.085       .  S
C409        C410   1.357       .  D
C410        H412   1.086       .  S
C413        H415   1.085       .  S
C413        C414   1.352       .  D
C414        H416   1.086       .  S
C417        H419   1.087       .  S
C417        C418   1.342       .  D
C418        H420   1.086       .  S
C421        H423   1.069       .  S
C421        C422   1.332       .  D
C422        H424   1.088       .  S
C425        H427   1.086       .  S
C425        C426   1.349       .  D
C426        H428   1.086       .  S
C429        H431   1.086       .  S
C429        C430   1.356       .  D
C430        H432   1.085       .  S
C433        H435   1.085       .  S
C433        C434   1.345       .  D
C434        H436   1.085       .  S
C437        H439   1.085       .  S
C437        C438   1.358       .  D
C438        H440   1.085       .  S
C441        H443   1.086       .  S
C441        C442   1.358       .  D
C442        H444   1.085       .  S
C445        H447   1.085       .  S
C445        C446   1.365       .  D
C446        H448   1.085       .  S
C449        H451   1.085       .  S
C449        C450   1.349       .  D
C450        H452   1.078       .  S
C453        H455   1.085       .  S
C453        C454   1.344       .  D
C454        H456   1.085       .  S
C457        H459   1.085       .  S
C457        C458   1.351       .  D
C458        H460   1.087       .  S
C461        H463   1.086       .  S
C461        C462   1.360       .  D
C462        H464   1.085       .  S
C465        H467   1.086       .  S
C465        C466   1.357       .  D
C466        H468   1.085       .  S
C469        H471   1.085       .  S
C469        C470   1.358       .  D
C470        H472   1.086       .  S
C473        H475   1.087       .  S
C473        C474   1.344       .  D
C474        H476   1.085       .  S
C477        H479   1.085       .  S
C477        C478   1.356       .  D
C478        H480   1.086       .  S
C481        H483   1.083       .  S
C481        C482   1.348       .  D
C482        H484   1.082       .  S
C485        H487   1.082       .  S
C485        C486   1.340       .  D
C486        H488   1.085       .  S
C489        H491   1.083       .  S
C489        C490   1.351       .  D
C490        H492   1.081       .  S
