geometry optimzed in LAMMPS
_audit_creation_date              2020-12-01 
_audit_creation_method            'lammps2cif' 
_symmetry_space_group_name_H-M    'P1' 
_symmetry_Int_Tables_number       1 
_symmetry_cell_setting            triclinic 
loop_ 
_symmetry_equiv_pos_as_xyz 
  x,y,z 
_cell_length_a                    22.31070771 
_cell_length_b                    22.21397236589885 
_cell_length_c                    24.875881915164427 
_cell_angle_alpha                 89.29688190311882 
_cell_angle_beta                  88.97076955132297 
_cell_angle_gamma                 89.97607974248474 
loop_ 
_atom_site_label 
_atom_site_type_symbol 
_atom_site_fract_x 
_atom_site_fract_y 
_atom_site_fract_z 
_atom_site_charge 
O1          O  0.31827261  0.19371831  0.45520037    -0.72100
O2          O  0.19258925  0.31307695  0.45430742    -0.72200
O3          O  0.31463045  0.31670168  0.45417460    -0.72200
O4          O  0.19568742  0.19090516  0.45543100    -0.72300
O5          O  0.18907916  0.18564409  0.04462798    -0.72200
O6          O  0.30634660  0.31277594  0.04438407    -0.72200
O7          O  0.18450096  0.30799071  0.04390718    -0.72200
O8          O  0.31135855  0.19006261  0.04474957    -0.72200
Ni9        Ni  0.25535134  0.25356913  0.45173604     1.25400
Ni10       Ni  0.24787380  0.24905041  0.04745969     1.25400
C11         C  0.33787130  0.17396342  0.00100020     0.90000
C12         C  0.16265322  0.32499683  0.99875002     0.90000
C13         C  0.32924814  0.34042261  0.49890219     0.90000
C14         C  0.17676820  0.16642680  0.49958390     0.90200
C15         C  0.15280679  0.09662128  0.99948846    -0.00200
C16         C  0.19441403  0.02210464  0.13892709    -0.08600
C17         C  0.22015289  0.97019763  0.11751911    -0.02400
C18         C  0.27187431  0.44386132  0.13977307    -0.08500
C19         C  0.28270315  0.45375911  0.19450615     0.12400
C20         C  0.24605181  0.99802586  0.22241452    -0.00300
C21         C  0.20317963  0.03332726  0.19408956     0.12200
C22         C  0.16944785  0.07659274  0.22214241    -0.10300
C23         C  0.17616243  0.08389658  0.27735928    -0.10300
C24         C  0.21906235  0.05041562  0.30567810     0.12200
C25         C  0.25484094  0.00741468  0.27781924    -0.00300
C26         C  0.32581803  0.42045959  0.22262019    -0.10500
C27         C  0.33301130  0.42816578  0.27762764    -0.10500
C28         C  0.29948733  0.47159602  0.30562685     0.12400
C29         C  0.30800922  0.48221205  0.36081571    -0.08500
C30         C  0.27965284  0.03321763  0.38350881    -0.02400
C31         C  0.22892607  0.05914927  0.36089157    -0.08600
H32         H  0.13613316  0.10377888  0.20222992     0.09700
H33         H  0.14849584  0.11718172  0.29719883     0.09700
H34         H  0.35306842  0.38678587  0.20284207     0.09800
H35         H  0.36620908  0.40078791  0.29748183     0.09800
H36         H  0.20647337  0.95495947  0.07832858     0.06300
H37         H  0.29293169  0.04704562  0.42325209     0.06300
C38         C  0.34597537  0.40460031  0.00062989    -0.00200
C39         C  0.09632006  0.34504760  0.99686717    -0.00200
C40         C  0.02310771  0.30173297  0.13662311    -0.08600
C41         C  0.46858059  0.27999457  0.11456411    -0.02400
C42         C  0.44268754  0.22954932  0.13921412    -0.08500
C43         C  0.45182214  0.22039442  0.19470363     0.12400
C44         C  0.49506776  0.25648182  0.22083217    -0.00300
C45         C  0.03385060  0.29364555  0.19199339     0.12200
C46         C  0.07776662  0.32690481  0.21853669    -0.10300
C47         C  0.08474371  0.32111829  0.27397743    -0.10300
C48         C  0.05016877  0.27968282  0.30419149     0.12200
C49         C  0.50446543  0.24873448  0.27657683    -0.00300
C50         C  0.41837691  0.17805077  0.22492514    -0.10500
C51         C  0.42578927  0.17225374  0.28030227    -0.10500
C52         C  0.46900903  0.20653043  0.30675398     0.12400
C53         C  0.47988158  0.19895425  0.36220541    -0.08500
C54         C  0.53160744  0.22452784  0.38257371    -0.02400
C55         C  0.05868493  0.27061637  0.35987121    -0.08600
H56         H  0.10580875  0.35924873  0.19725230     0.09700
H57         H  0.11857282  0.34833325  0.29258479     0.09700
H58         H  0.38501071  0.15019573  0.20638653     0.09800
H59         H  0.39854185  0.13925044  0.30159965     0.09800
H60         H  0.45413363  0.29295945  0.07465353     0.06300
H61         H  0.54641727  0.21118852  0.42227527     0.06300
C62         C  0.40426982  0.15316053  0.00259496    -0.00200
O63         O  0.06139671  0.43859102  0.45290841    -0.72100
O64         O  0.44353530  0.06457246  0.45626509    -0.72200
O65         O  0.06397546  0.06602967  0.45581215    -0.72200
O66         O  0.44121051  0.44485599  0.45498047    -0.72300
O67         O  0.43728260  0.43839019  0.04246095    -0.72200
O68         O  0.06120715  0.05888519  0.04449560    -0.72200
O69         O  0.44046307  0.06107388  0.04654984    -0.72200
O70         O  0.05820035  0.43433149  0.04260004    -0.72200
Ni71       Ni  0.00227341  0.00514136  0.45304421     1.25400
Ni72       Ni  0.99819735  0.99961719  0.04769615     1.25400
C73         C  0.07535561  0.41133377  0.99776427     0.90000
C74         C  0.42454346  0.08643642  0.00228393     0.90000
C75         C  0.08592049  0.07627149  0.00001646     0.90000
C76         C  0.41210859  0.42423513  0.99828320     0.90200
C77         C  0.43748257  0.16976702  0.40174409    -0.14100
C78         C  0.43729921  0.18686968  0.45407604    -0.29300
H79         H  0.40821791  0.13384408  0.38928037     0.14900
H80         H  0.46026602  0.22838190  0.46315527     0.15500
C81         C  0.41259931  0.18616648  0.10300460    -0.14100
C82         C  0.43443602  0.18053119  0.05187305    -0.29300
H83         H  0.37267499  0.16243375  0.11668438     0.14900
H84         H  0.48009028  0.19602268  0.04506523     0.15500
C85         C  0.06905588  0.31920070  0.44745629    -0.14100
C86         C  0.09037411  0.31293760  0.39615634    -0.29300
H87         H  0.02309795  0.30477702  0.45451998     0.14900
H88         H  0.13048920  0.33600800  0.38207792     0.15500
C89         C  0.06621121  0.32968849  0.09709163    -0.14100
C90         C  0.06582539  0.31246090  0.04480517    -0.29300
H91         H  0.09589137  0.36537676  0.10934784     0.14900
H92         H  0.04202541  0.27146300  0.03584662     0.15500
C93         C  0.31897075  0.43653153  0.45077833    -0.14100
C94         C  0.33846020  0.43981092  0.39872465    -0.29300
H95         H  0.27508814  0.45556154  0.45932782     0.14900
H96         H  0.37681152  0.41376944  0.38528972     0.15500
C97         C  0.31921381  0.43539128  0.05084217    -0.14100
C98         C  0.31451970  0.41361710  0.10197184    -0.29300
H99         H  0.30396465  0.48135370  0.04554833     0.14900
H100        H  0.33849303  0.37359603  0.11454769     0.15500
C101        C  0.18604568  0.08913643  0.39868021    -0.14100
C102        C  0.18243019  0.06866721  0.45032360    -0.29300
H103        H  0.16098160  0.12838123  0.38583496     0.14900
H104        H  0.19994497  0.02379833  0.45778864     0.15500
C105        C  0.16470503  0.06461337  0.10027957    -0.15300
C106        C  0.18296233  0.06540573  0.04773864    -0.29300
H107        H  0.12827171  0.09335108  0.11362423     0.14900
H108        H  0.22407273  0.04164134  0.03904794     0.15500
O109        O  0.31553856  0.19056205  0.95590135    -0.72100
O110        O  0.18948649  0.30944509  0.95506994    -0.72200
O111        O  0.31120272  0.31326179  0.95579410    -0.72200
O112        O  0.19239171  0.18700521  0.95539746    -0.72300
O113        O  0.19181260  0.18986577  0.54432471    -0.72200
O114        O  0.31087464  0.31564094  0.54311667    -0.72200
O115        O  0.18838654  0.31225134  0.54318373    -0.72200
O116        O  0.31399263  0.19290232  0.54404210    -0.72200
Ni117      Ni  0.25220165  0.24999066  0.95247651     1.25400
Ni118      Ni  0.25135528  0.25271984  0.54672956     1.25400
C119        C  0.34020115  0.17641968  0.50028150     0.90000
C120        C  0.16586760  0.32852403  0.49807197     0.90000
C121        C  0.32480362  0.33778257  0.00037814     0.90000
C122        C  0.17369494  0.16258186  0.99986240     0.90200
C123        C  0.15484674  0.10031741  0.49940202    -0.00200
C124        C  0.19959955  0.02624249  0.63699986    -0.08600
C125        C  0.22593895  0.97542287  0.61455458    -0.02400
C126        C  0.27688238  0.44951253  0.63701101    -0.08500
C127        C  0.28516163  0.45689850  0.69254928     0.12400
C128        C  0.24553859  0.99567782  0.72119667    -0.00300
C129        C  0.20588513  0.03444496  0.69274259     0.12200
C130        C  0.17239353  0.07747341  0.72128249    -0.10300
C131        C  0.17182239  0.07714772  0.77737044    -0.10300
C132        C  0.20483347  0.03385577  0.80599028     0.12200
C133        C  0.24521078  0.99556350  0.77773686    -0.00300
C134        C  0.32830811  0.42416773  0.72128266    -0.10500
C135        C  0.32796835  0.42459231  0.77747676    -0.10500
C136        C  0.28442169  0.45769646  0.80601184     0.12400
C137        C  0.27492682  0.45072984  0.86209273    -0.08500
C138        C  0.22353412  0.97408774  0.88484525    -0.02400
C139        C  0.19723036  0.02483868  0.86173264    -0.08600
H140        H  0.14375970  0.10935110  0.70093841     0.09700
H141        H  0.14272746  0.10877655  0.79775898     0.09700
H142        H  0.36023089  0.39526690  0.70097638     0.09800
H143        H  0.35957402  0.39592208  0.79799257     0.09800
H144        H  0.21240246  0.96135118  0.57496199     0.06300
H145        H  0.20864071  0.95963706  0.92470306     0.06300
C146        C  0.35021534  0.40678840  0.49896597    -0.00200
C147        C  0.09912094  0.34731272  0.49652702    -0.00200
C148        C  0.02489125  0.30458923  0.63635617    -0.08600
C149        C  0.47129554  0.27905950  0.61458278    -0.02400
C150        C  0.44494740  0.22858980  0.63884774    -0.08500
C151        C  0.45355083  0.21888054  0.69427172     0.12400
C152        C  0.49710886  0.25411922  0.72070370    -0.00300
C153        C  0.03424626  0.29647941  0.69205649     0.12200
C154        C  0.07884215  0.32817983  0.71911356    -0.10300
C155        C  0.08498720  0.32181597  0.77461549    -0.10300
C156        C  0.04895585  0.28106532  0.80429995     0.12200
C157        C  0.50566707  0.24603825  0.77655246    -0.00300
C158        C  0.41905612  0.17702230  0.72416454    -0.10500
C159        C  0.42551773  0.17113850  0.77967165    -0.10500
C160        C  0.46894341  0.20457297  0.80656709     0.12400
C161        C  0.47886754  0.19681751  0.86228172    -0.08500
C162        C  0.53084008  0.22146982  0.88290368    -0.02400
C163        C  0.05709654  0.27070709  0.85972470    -0.08600
H164        H  0.10830352  0.35947315  0.69808635     0.09700
H165        H  0.11960390  0.34765376  0.79360131     0.09700
H166        H  0.38542142  0.14980829  0.70528851     0.09800
H167        H  0.39734684  0.13877645  0.80080276     0.09800
H168        H  0.45666905  0.29274197  0.57491572     0.06300
H169        H  0.54495514  0.20804108  0.92279538     0.06300
C170        C  0.40623752  0.15449121  0.50187786    -0.00200
O171        O  0.05927200  0.43665187  0.95364602    -0.72100
O172        O  0.44122901  0.06286909  0.95758993    -0.72200
O173        O  0.06111459  0.06164679  0.95589761    -0.72200
O174        O  0.43483388  0.44346582  0.95336567    -0.72300
O175        O  0.43976655  0.44203670  0.54393509    -0.72200
O176        O  0.06410857  0.06179137  0.54471661    -0.72200
O177        O  0.44185529  0.06208989  0.54520229    -0.72200
O178        O  0.06020539  0.43661325  0.54188946    -0.72200
Ni179      Ni  0.99875117  0.00169070  0.95265086     1.25400
Ni180      Ni  0.00111298  0.00237086  0.54808081     1.25400
C181        C  0.07745532  0.41345353  0.49714618     0.90000
C182        C  0.42621078  0.08768624  0.50101411     0.90000
C183        C  0.08831040  0.08039203  0.50031702     0.90000
C184        C  0.41641857  0.42687314  0.49918027     0.90200
C185        C  0.43578275  0.16798999  0.90180928    -0.14100
C186        C  0.43516105  0.18531113  0.95424217    -0.29300
H187        H  0.40676461  0.13191090  0.88925153     0.14900
H188        H  0.45831820  0.22669539  0.96314929     0.15500
C189        C  0.41478553  0.18581034  0.60232831    -0.14100
C190        C  0.43668660  0.18090495  0.55124296    -0.29300
H191        H  0.37468264  0.16210654  0.61562109     0.14900
H192        H  0.48248853  0.19620146  0.54460639     0.15500
C193        C  0.06646859  0.31784201  0.94755277    -0.14100
C194        C  0.08842490  0.31236050  0.89650972    -0.29300
H195        H  0.02036650  0.30355735  0.95407085     0.14900
H196        H  0.12865150  0.33569221  0.88305242     0.15500
C197        C  0.06894972  0.33218757  0.59723425    -0.14100
C198        C  0.06944549  0.31447160  0.54497314    -0.29300
H199        H  0.09778207  0.36852949  0.60962455     0.14900
H200        H  0.04633663  0.27291213  0.53630926     0.15500
C201        C  0.31555113  0.43648203  0.95306488    -0.14100
C202        C  0.31671383  0.42033251  0.90040334    -0.29300
H203        H  0.29075644  0.47679259  0.96245800     0.14900
H204        H  0.34625698  0.38469095  0.88681651     0.15500
C205        C  0.32195657  0.43829892  0.54758801    -0.14100
C206        C  0.31928423  0.41875366  0.59949152    -0.29300
H207        H  0.30444378  0.48308874  0.53979385     0.14900
H208        H  0.34453967  0.37977463  0.61269366     0.15500
C209        C  0.16519984  0.06642553  0.89889123    -0.14100
C210        C  0.18454643  0.06953084  0.95013587    -0.29300
H211        H  0.12611206  0.09102924  0.88572182     0.14900
H212        H  0.23022131  0.05450248  0.95578835     0.15500
C213        C  0.16831434  0.06823722  0.59946014    -0.15300
C214        C  0.18666170  0.07066494  0.54708069    -0.29300
H215        H  0.13008701  0.09422821  0.61329265     0.14900
H216        H  0.23057782  0.05199624  0.53797419     0.15500
O217        O  0.31475936  0.69333823  0.45592882    -0.72100
O218        O  0.18971853  0.81331033  0.45491240    -0.72200
O219        O  0.31174028  0.81614925  0.45475810    -0.72200
O220        O  0.19232862  0.69092440  0.45539063    -0.72300
O221        O  0.18758244  0.68597115  0.04546088    -0.72200
O222        O  0.30399352  0.81397658  0.04524178    -0.72200
O223        O  0.18216989  0.80872814  0.04430475    -0.72200
O224        O  0.30964966  0.69156363  0.04577587    -0.72200
Ni225      Ni  0.25211484  0.75340690  0.45223114     1.25400
Ni226      Ni  0.24579050  0.75002962  0.04828952     1.25400
C227        C  0.33517987  0.67464185  0.00183270     0.90000
C228        C  0.16118307  0.82668483  0.99903441     0.90000
C229        C  0.32592855  0.84014969  0.49943858     0.90000
C230        C  0.17426847  0.66531300  0.49925052     0.90200
C231        C  0.15337112  0.59650790  0.99954767    -0.00200
C232        C  0.19587326  0.52175819  0.13864646    -0.08600
C233        C  0.22087369  0.46946472  0.11738811    -0.02400
C234        C  0.27132946  0.94504355  0.13991835    -0.08500
C235        C  0.28168062  0.95474757  0.19474578     0.12400
C236        C  0.24758471  0.49746406  0.22209551    -0.00300
C237        C  0.20491896  0.53303113  0.19374314     0.12200
C238        C  0.17172630  0.57676760  0.22166204    -0.10300
C239        C  0.17873874  0.58431616  0.27675698    -0.10300
C240        C  0.22139631  0.55056758  0.30509281     0.12200
C241        C  0.25675420  0.50713635  0.27739503    -0.00300
C242        C  0.32472771  0.92147130  0.22290535    -0.10500
C243        C  0.33151268  0.92884159  0.27795135    -0.10500
C244        C  0.29766041  0.97194510  0.30600167     0.12400
C245        C  0.30602184  0.98230138  0.36121097    -0.08500
C246        C  0.28173188  0.53329056  0.38302691    -0.02400
C247        C  0.23126264  0.55944547  0.36020978    -0.08600
H248        H  0.13860061  0.60418697  0.20175581     0.09700
H249        H  0.15148473  0.61802842  0.29645479     0.09700
H250        H  0.35226984  0.88803974  0.20313932     0.09800
H251        H  0.36473357  0.90147969  0.29776949     0.09800
H252        H  0.20701041  0.45432601  0.07822304     0.06300
H253        H  0.29469588  0.54708947  0.42286932     0.06300
C254        C  0.34612503  0.90457077  0.00126369    -0.00200
C255        C  0.09511968  0.84742230  0.99642711    -0.00200
C256        C  0.02323835  0.80298562  0.13657886    -0.08600
C257        C  0.47137146  0.77609660  0.11620309    -0.02400
C258        C  0.44461251  0.72570795  0.14011011    -0.08500
C259        C  0.45433642  0.71510264  0.19535433     0.12400
C260        C  0.49888012  0.74958122  0.22154746    -0.00300
C261        C  0.03496361  0.79484399  0.19180256     0.12200
C262        C  0.07844650  0.82892732  0.21810758    -0.10300
C263        C  0.08573208  0.82334947  0.27353963    -0.10300
C264        C  0.05196669  0.78134072  0.30388691     0.12200
C265        C  0.50755080  0.74201704  0.27740735    -0.00300
C266        C  0.41976255  0.67359508  0.22546566    -0.10500
C267        C  0.42630557  0.66826530  0.28100331    -0.10500
C268        C  0.46989185  0.70191458  0.30765894     0.12400
C269        C  0.47870525  0.69598795  0.36353001    -0.08500
C270        C  0.53075724  0.72009701  0.38461120    -0.02400
C271        C  0.06025333  0.77302992  0.35959274    -0.08600
H272        H  0.10571902  0.86183328  0.19669882     0.09700
H273        H  0.11903959  0.85127546  0.29208672     0.09700
H274        H  0.38576546  0.64662865  0.20680316     0.09800
H275        H  0.39777475  0.63642391  0.30239402     0.09800
H276        H  0.45623417  0.79090087  0.07700054     0.06300
H277        H  0.54376072  0.70741976  0.42500941     0.06300
C278        C  0.40153710  0.65426725  0.00241178    -0.00200
O279        O  0.06256434  0.94288790  0.45355214    -0.72100
O280        O  0.44246531  0.56679376  0.45768415    -0.72200
O281        O  0.06450013  0.56161378  0.45442840    -0.72200
O282        O  0.44016932  0.94243675  0.45432640    -0.72300
O283        O  0.43692452  0.93769048  0.04450247    -0.72200
O284        O  0.06282639  0.55630647  0.04486085    -0.72200
O285        O  0.43743194  0.56148644  0.04473041    -0.72200
O286        O  0.05764572  0.93703028  0.04204980    -0.72200
Ni287      Ni  0.00177842  0.50160903  0.45225448     1.25400
Ni288      Ni  0.99932032  0.49741066  0.04826805     1.25400
C289        C  0.07467508  0.91386758  0.99722471     0.90000
C290        C  0.42228026  0.58781664  0.00074270     0.90000
C291        C  0.08714574  0.57420129  0.00030160     0.90000
C292        C  0.41266677  0.92280053  0.00007873     0.90200
C293        C  0.43399341  0.67004502  0.40266991    -0.14100
C294        C  0.43345311  0.68861321  0.45457803    -0.29300
H295        H  0.40448170  0.63408907  0.39068129     0.14900
H296        H  0.45671700  0.73015797  0.46298542     0.15500
C297        C  0.41215705  0.68467276  0.10334300    -0.14100
C298        C  0.43256168  0.68052353  0.05161452    -0.29300
H299        H  0.37199590  0.66141904  0.11715485     0.14900
H300        H  0.47845431  0.69504792  0.04432929     0.15500
C301        C  0.06667245  0.82363574  0.44632113    -0.14100
C302        C  0.08962566  0.81702477  0.39565473    -0.29300
H303        H  0.02062076  0.80885087  0.45236786     0.14900
H304        H  0.13007789  0.84007459  0.38233242     0.15500
C305        C  0.06502934  0.83217439  0.09666664    -0.14100
C306        C  0.06408281  0.81534849  0.04426081    -0.29300
H307        H  0.09479158  0.86781227  0.10889588     0.14900
H308        H  0.04046472  0.77432617  0.03518402     0.15500
C309        C  0.31733372  0.93626528  0.45103387    -0.14100
C310        C  0.33663699  0.93984595  0.39895619    -0.29300
H311        H  0.27341957  0.95513511  0.45977567     0.14900
H312        H  0.37477615  0.91369001  0.38527542     0.15500
C313        C  0.31872045  0.93602539  0.05089237    -0.14100
C314        C  0.31433292  0.91492855  0.10226540    -0.29300
H315        H  0.30197702  0.98127721  0.04485962     0.14900
H316        H  0.33874677  0.87523568  0.11501439     0.15500
C317        C  0.18808165  0.58931578  0.39773840    -0.14100
C318        C  0.18318514  0.56798982  0.44899667    -0.29300
H319        H  0.16323296  0.62862093  0.38478282     0.14900
H320        H  0.20017287  0.52280630  0.45600424     0.15500
C321        C  0.16658332  0.56459874  0.10000374    -0.15300
C322        C  0.18440625  0.56523540  0.04733669    -0.29300
H323        H  0.13042533  0.59366276  0.11339803     0.14900
H324        H  0.22472120  0.54037909  0.03804025     0.15500
O325        O  0.31205069  0.69042829  0.95687412    -0.72100
O326        O  0.18845572  0.81147996  0.95552845    -0.72200
O327        O  0.31007916  0.81334301  0.95670254    -0.72200
O328        O  0.18937294  0.68874953  0.95624317    -0.72300
O329        O  0.18881162  0.68855282  0.54424795    -0.72200
O330        O  0.30636000  0.81608285  0.54365201    -0.72200
O331        O  0.18397407  0.81121609  0.54370711    -0.72200
O332        O  0.31061126  0.69322755  0.54474783    -0.72200
Ni333      Ni  0.25001797  0.75094588  0.95330992     1.25400
Ni334      Ni  0.24745713  0.75232831  0.54718609     1.25400
C335        C  0.33696020  0.67672888  0.50110865     0.90000
C336        C  0.16258414  0.82867962  0.49852783     0.90000
C337        C  0.32348950  0.83817249  0.00121612     0.90000
C338        C  0.17205340  0.66316665  0.00062080     0.90200
C339        C  0.15442636  0.59855102  0.49814716    -0.00200
C340        C  0.20002990  0.52632655  0.63625776    -0.08600
C341        C  0.22596798  0.47494495  0.61438058    -0.02400
C342        C  0.27671778  0.94964980  0.63717087    -0.08500
C343        C  0.28478352  0.95633738  0.69283362     0.12400
C344        C  0.24628079  0.49688283  0.72059439    -0.00300
C345        C  0.20687908  0.53560024  0.69184570     0.12200
C346        C  0.17414848  0.57954194  0.72005168    -0.10300
C347        C  0.17369026  0.57986248  0.77621627    -0.10300
C348        C  0.20591439  0.53621138  0.80513471     0.12200
C349        C  0.24588933  0.49725708  0.77712508    -0.00300
C350        C  0.32819132  0.92365412  0.72133496    -0.10500
C351        C  0.32811391  0.92383097  0.77754683    -0.10500
C352        C  0.28444338  0.95645515  0.80635956     0.12400
C353        C  0.27569073  0.94961133  0.86253400    -0.08500
C354        C  0.22275238  0.47569608  0.88388946    -0.02400
C355        C  0.19768927  0.52715004  0.86086721    -0.08600
H356        H  0.14591477  0.61154990  0.69940299     0.09700
H357        H  0.14505520  0.61200722  0.79651076     0.09700
H358        H  0.36033181  0.89519370  0.70079580     0.09800
H359        H  0.36011610  0.89545411  0.79791042     0.09800
H360        H  0.21223879  0.46023361  0.57503299     0.06300
H361        H  0.20684528  0.46103775  0.92337301     0.06300
C362        C  0.34857859  0.90606754  0.49900360    -0.00200
C363        C  0.09655596  0.84983639  0.49634879    -0.00200
C364        C  0.02230276  0.80423322  0.63628410    -0.08600
C365        C  0.47194627  0.78120982  0.61504080    -0.02400
C366        C  0.44325751  0.73206148  0.63930186    -0.08500
C367        C  0.45112631  0.72217523  0.69480459     0.12400
C368        C  0.49626571  0.75528820  0.72133548    -0.00300
C369        C  0.03283963  0.79587736  0.69184259     0.12200
C370        C  0.07670514  0.82887262  0.71864150    -0.10300
C371        C  0.08357599  0.82261638  0.77407952    -0.10300
C372        C  0.04893340  0.78093968  0.80404244     0.12200
C373        C  0.50436142  0.74677892  0.77720343    -0.00300
C374        C  0.41450599  0.68214750  0.72466086    -0.10500
C375        C  0.42060806  0.67592847  0.78014106    -0.10500
C376        C  0.46564464  0.70710747  0.80706959     0.12400
C377        C  0.47512355  0.69875170  0.86271343    -0.08500
C378        C  0.52796737  0.72107186  0.88368251    -0.02400
C379        C  0.05752698  0.77130369  0.85952969    -0.08600
H380        H  0.10490311  0.86123799  0.69754750     0.09700
H381        H  0.11750249  0.84954666  0.79287575     0.09700
H382        H  0.37951001  0.65670618  0.70582480     0.09800
H383        H  0.39074050  0.64509793  0.80123494     0.09800
H384        H  0.45831784  0.79530063  0.57517511     0.06300
H385        H  0.54124695  0.70695053  0.92363988     0.06300
C386        C  0.40340332  0.65630769  0.50286894    -0.00200
O387        O  0.05860630  0.93909970  0.95307651    -0.72100
O388        O  0.44035000  0.56572346  0.95580253    -0.72200
O389        O  0.06259729  0.55914676  0.95621613    -0.72200
O390        O  0.43681312  0.94053465  0.95528687    -0.72300
O391        O  0.43943339  0.93915216  0.54324221    -0.72200
O392        O  0.06431528  0.55886779  0.54340867    -0.72200
O393        O  0.44191602  0.56508146  0.54657633    -0.72200
O394        O  0.06025856  0.93948249  0.54253293    -0.72200
Ni395      Ni  0.99987403  0.49970766  0.95328168     1.25400
Ni396      Ni  0.00123719  0.49970074  0.54732368     1.25400
C397        C  0.07743032  0.91665392  0.49763236     0.90000
C398        C  0.42514796  0.58995436  0.50241573     0.90000
C399        C  0.08845663  0.57699115  0.49886426     0.90000
C400        C  0.41534800  0.92469113  0.49863215     0.90200
C401        C  0.43120451  0.67087862  0.90181065    -0.14100
C402        C  0.43121433  0.68771416  0.95429121    -0.29300
H403        H  0.40207114  0.63489276  0.88920511     0.14900
H404        H  0.45461692  0.72899415  0.96339975     0.15500
C405        C  0.41179754  0.69018430  0.60279771    -0.14100
C406        C  0.43353921  0.68415071  0.55174964    -0.29300
H407        H  0.37165775  0.66689061  0.61650522     0.14900
H408        H  0.47958530  0.69844124  0.54488259     0.15500
C409        C  0.06552443  0.82011125  0.94686572    -0.14100
C410        C  0.08799140  0.81406177  0.89601122    -0.29300
H411        H  0.01953966  0.80527852  0.95317816     0.14900
H412        H  0.12831591  0.83731017  0.88262842     0.15500
C413        C  0.06503904  0.83341876  0.59673128    -0.14100
C414        C  0.06477500  0.81737339  0.54398398    -0.29300
H415        H  0.09495668  0.86860657  0.60959524     0.14900
H416        H  0.04052444  0.77692884  0.53425481     0.15500
C417        C  0.31768706  0.93696191  0.95292426    -0.14100
C418        C  0.31804094  0.91965032  0.90058513    -0.29300
H419        H  0.29477105  0.97869406  0.96129521     0.14900
H420        H  0.34630754  0.88285606  0.88729325     0.15500
C421        C  0.32161487  0.93845363  0.54769163    -0.14100
C422        C  0.31899579  0.91888989  0.59957466    -0.29300
H423        H  0.30442898  0.98340074  0.53986521     0.14900
H424        H  0.34373503  0.87947494  0.61256395     0.15500
C425        C  0.16599393  0.56883831  0.89824488    -0.14100
C426        C  0.18553688  0.57126730  0.94953595    -0.29300
H427        H  0.12643820  0.59304571  0.88551306     0.14900
H428        H  0.23126028  0.55621271  0.95493345     0.15500
C429        C  0.16858355  0.56770696  0.59830357    -0.15300
C430        C  0.18655428  0.56921615  0.54579298    -0.29300
H431        H  0.13044544  0.59397298  0.61194902     0.14900
H432        H  0.23005962  0.54977154  0.53656466     0.15500
O433        O  0.81568574  0.19384418  0.45569058    -0.72100
O434        O  0.68958014  0.31238054  0.45348887    -0.72200
O435        O  0.81151494  0.31648446  0.45439506    -0.72200
O436        O  0.69326893  0.19023378  0.45486572    -0.72300
O437        O  0.68610491  0.18817077  0.04390615    -0.72200
O438        O  0.80565794  0.31267403  0.04328980    -0.72200
O439        O  0.68314462  0.31045747  0.04262774    -0.72200
O440        O  0.80852873  0.19057968  0.04458234    -0.72200
Ni441      Ni  0.75253854  0.25318296  0.45152990     1.25400
Ni442      Ni  0.74582066  0.25048294  0.04660971     1.25400
C443        C  0.83540098  0.17476611  0.00092222     0.90000
C444        C  0.66112129  0.32674376  0.99732082     0.90000
C445        C  0.82622213  0.33963511  0.49933291     0.90000
C446        C  0.67419868  0.16577781  0.49897619     0.90200
C447        C  0.65354676  0.09672595  0.00101457    -0.00200
C448        C  0.69343077  0.02276873  0.14005876    -0.08600
C449        C  0.71918915  0.97153048  0.11763716    -0.02400
C450        C  0.76999274  0.44285809  0.13902623    -0.08500
C451        C  0.77977561  0.45135431  0.19426925     0.12400
C452        C  0.74701924  0.99887648  0.22219220    -0.00300
C453        C  0.70336750  0.03394304  0.19479252     0.12200
C454        C  0.67009963  0.07719922  0.22315994    -0.10300
C455        C  0.67762587  0.08439549  0.27817489    -0.10300
C456        C  0.72086926  0.05075332  0.30589447     0.12200
C457        C  0.75660211  0.00813441  0.27747048    -0.00300
C458        C  0.82207055  0.41711998  0.22260222    -0.10500
C459        C  0.82891554  0.42426764  0.27780651    -0.10500
C460        C  0.79606057  0.46818809  0.30581663     0.12400
C461        C  0.80546147  0.47951324  0.36085863    -0.08500
C462        C  0.78240052  0.03372754  0.38299902    -0.02400
C463        C  0.73103515  0.05902932  0.36106129    -0.08600
H464        H  0.63656989  0.10447245  0.20359106     0.09700
H465        H  0.65028703  0.11775208  0.29822911     0.09700
H466        H  0.84905332  0.38326909  0.20278677     0.09800
H467        H  0.86164415  0.39640462  0.29778238     0.09800
H468        H  0.70424985  0.95721025  0.07855004     0.06300
H469        H  0.79588133  0.04722548  0.42277759     0.06300
C470        C  0.84550614  0.40386154  0.00022260    -0.00200
C471        C  0.59498607  0.34759612  0.99516465    -0.00200
C472        C  0.52023407  0.30561495  0.13502137    -0.08600
C473        C  0.97048052  0.27810617  0.11631508    -0.02400
C474        C  0.94349118  0.22785476  0.14031723    -0.08500
C475        C  0.95330464  0.21725277  0.19563462     0.12400
C476        C  0.99740503  0.25220411  0.22199690    -0.00300
C477        C  0.53070602  0.29848275  0.19059794     0.12200
C478        C  0.57382292  0.33286346  0.21707268    -0.10300
C479        C  0.58116473  0.32715313  0.27248486    -0.10300
C480        C  0.54786622  0.28468044  0.30268457     0.12200
C481        C  0.00634848  0.24439033  0.27782779    -0.00300
C482        C  0.91948094  0.17501072  0.22562543    -0.10500
C483        C  0.92644325  0.16920402  0.28111965    -0.10500
C484        C  0.96961939  0.20326025  0.30789933     0.12400
C485        C  0.97905245  0.19666406  0.36367235    -0.08500
C486        C  0.03101674  0.22117038  0.38455911    -0.02400
C487        C  0.55750004  0.27505072  0.35805879    -0.08600
H488        H  0.60110572  0.36580475  0.19572562     0.09700
H489        H  0.61449762  0.35502420  0.29106191     0.09700
H490        H  0.88590587  0.14760355  0.20686783     0.09800
H491        H  0.89865028  0.13660253  0.30237630     0.09800
H492        H  0.95589832  0.29254406  0.07682727     0.06300
H493        H  0.04463535  0.20797651  0.42465795     0.06300
C494        C  0.90173292  0.15433879  0.00273535    -0.00200
O495        O  0.56251827  0.44233183  0.45213697    -0.72100
O496        O  0.94124463  0.06626256  0.45873121    -0.72200
O497        O  0.56613327  0.06119641  0.45374504    -0.72200
O498        O  0.93955215  0.44172383  0.45601777    -0.72300
O499        O  0.93539170  0.43864031  0.04551379    -0.72200
O500        O  0.56224125  0.05662522  0.04457254    -0.72200
O501        O  0.93905882  0.06314727  0.04687258    -0.72200
O502        O  0.55952655  0.43870720  0.03962427    -0.72200
Ni503      Ni  0.50293065  0.00175779  0.45095306     1.25400
Ni504      Ni  0.49965271  0.99729923  0.04743876     1.25400
C505        C  0.57471057  0.41412335  0.99497531     0.90000
C506        C  0.92231813  0.08778174  0.00258439     0.90000
C507        C  0.58738714  0.07424017  0.00046025     0.90000
C508        C  0.91203488  0.42321951  0.00079145     0.90200
C509        C  0.93492151  0.16987992  0.40301338    -0.14100
C510        C  0.93430531  0.18830943  0.45502118    -0.29300
H511        H  0.90537987  0.13402536  0.39088143     0.14900
H512        H  0.95775059  0.22968643  0.46351016     0.15500
C513        C  0.91111575  0.18664981  0.10349145    -0.14100
C514        C  0.93185744  0.18200271  0.05187231    -0.29300
H515        H  0.87092924  0.16341806  0.11726589     0.14900
H516        H  0.97768149  0.19674504  0.04478723     0.15500
C517        C  0.56670355  0.32335407  0.44556631    -0.14100
C518        C  0.58845908  0.31772612  0.39439343    -0.29300
H519        H  0.52076728  0.30846921  0.45219815     0.14900
H520        H  0.62891373  0.34063827  0.38083526     0.15500
C521        C  0.56317710  0.33396156  0.09543084    -0.14100
C522        C  0.56380434  0.31596365  0.04331904    -0.29300
H523        H  0.59246925  0.36994062  0.10770428     0.14900
H524        H  0.54074645  0.27444069  0.03466408     0.15500
C525        C  0.81722421  0.43609211  0.45178450    -0.14100
C526        C  0.83599414  0.43765407  0.39936066    -0.29300
H527        H  0.77404134  0.45629305  0.46041092     0.14900
H528        H  0.87366609  0.41056096  0.38602708     0.15500
C529        C  0.81667195  0.43459977  0.04930970    -0.14100
C530        C  0.81339927  0.41389533  0.10095135    -0.29300
H531        H  0.79801574  0.47888348  0.04194350     0.14900
H532        H  0.83943211  0.37523257  0.11362894     0.15500
C533        C  0.68752661  0.08761669  0.39917944    -0.14100
C534        C  0.68501873  0.06795976  0.45106408    -0.29300
H535        H  0.66007301  0.12511401  0.38620441     0.14900
H536        H  0.70556072  0.02473872  0.45954122     0.15500
C537        C  0.66282272  0.06509084  0.10231448    -0.15300
C538        C  0.68421000  0.06953244  0.05091706    -0.29300
H539        H  0.62292511  0.08910563  0.11518626     0.14900
H540        H  0.72972388  0.05372960  0.04516751     0.15500
O541        O  0.81356773  0.19156439  0.95566619    -0.72100
O542        O  0.68746568  0.30994343  0.95377981    -0.72200
O543        O  0.80910015  0.31445268  0.95437376    -0.72200
O544        O  0.69101495  0.18696244  0.95473640    -0.72300
O545        O  0.68785071  0.18996080  0.54373514    -0.72200
O546        O  0.80754903  0.31461363  0.54330324    -0.72200
O547        O  0.68508859  0.31239014  0.54238302    -0.72200
O548        O  0.80985386  0.19225746  0.54448789    -0.72200
Ni549      Ni  0.75028102  0.25068080  0.95154065     1.25400
Ni550      Ni  0.74756405  0.25237627  0.54651918     1.25400
C551        C  0.83712032  0.17669447  0.50100042     0.90000
C552        C  0.66310241  0.32876043  0.49709617     0.90000
C553        C  0.82403620  0.33769428  0.99926617     0.90000
C554        C  0.67212678  0.16339958  0.99947849     0.90200
C555        C  0.65469504  0.09904398  0.49912085    -0.00200
C556        C  0.69751149  0.02606019  0.63741080    -0.08600
C557        C  0.72412441  0.97556893  0.61451567    -0.02400
C558        C  0.77203707  0.44546546  0.63875255    -0.08500
C559        C  0.78135646  0.45343235  0.69415789     0.12400
C560        C  0.74442629  0.99566501  0.72107172    -0.00300
C561        C  0.70419452  0.03419301  0.69314041     0.12200
C562        C  0.67060118  0.07680319  0.72214286    -0.10300
C563        C  0.67107946  0.07671684  0.77831301    -0.10300
C564        C  0.70496231  0.03381366  0.80663824     0.12200
C565        C  0.74458889  0.99525151  0.77762643    -0.00300
C566        C  0.82318282  0.41874439  0.72260319    -0.10500
C567        C  0.82936565  0.42526763  0.77794608    -0.10500
C568        C  0.79620013  0.46888159  0.80606729     0.12400
C569        C  0.80470742  0.47931660  0.86137458    -0.08500
C570        C  0.72417979  0.97335057  0.88488542    -0.02400
C571        C  0.69889061  0.02520049  0.86277294    -0.08600
H572        H  0.64125775  0.10823312  0.70202813     0.09700
H573        H  0.64198297  0.10808989  0.79899004     0.09700
H574        H  0.85030835  0.38503058  0.70275956     0.09800
H575        H  0.86176821  0.39706936  0.79797443     0.09800
H576        H  0.71025980  0.96165639  0.57497251     0.06300
H577        H  0.71015913  0.95833808  0.92482396     0.06300
C578        C  0.84765372  0.40577033  0.50015799    -0.00200
C579        C  0.59711226  0.34980531  0.49521754    -0.00200
C580        C  0.52314124  0.30405839  0.63515495    -0.08600
C581        C  0.97229347  0.28179127  0.61526507    -0.02400
C582        C  0.94304930  0.23305986  0.63967991    -0.08500
C583        C  0.95084503  0.22320848  0.69523409     0.12400
C584        C  0.99587961  0.25640247  0.72183540    -0.00300
C585        C  0.53356868  0.29585054  0.69073751     0.12200
C586        C  0.57718563  0.32911084  0.71758886    -0.10300
C587        C  0.58389739  0.32295660  0.77304890    -0.10300
C588        C  0.54929184  0.28118680  0.80297456     0.12200
C589        C  0.00411945  0.24767411  0.77764934    -0.00300
C590        C  0.91438355  0.18298985  0.72505964    -0.10500
C591        C  0.92093314  0.17619502  0.78046408    -0.10500
C592        C  0.96609743  0.20718567  0.80736945     0.12400
C593        C  0.97631193  0.19798551  0.86283199    -0.08500
C594        C  0.02884696  0.22111715  0.88373569    -0.02400
C595        C  0.55766327  0.27162931  0.85846908    -0.08600
H596        H  0.60532967  0.36154270  0.69650875     0.09700
H597        H  0.61767626  0.35002989  0.79187638     0.09700
H598        H  0.87936945  0.15758663  0.70620789     0.09800
H599        H  0.89134202  0.14505372  0.80151215     0.09800
H600        H  0.95913424  0.29562230  0.57519499     0.06300
H601        H  0.04255263  0.20687425  0.92354385     0.06300
C602        C  0.90353421  0.15651474  0.50333428    -0.00200
O603        O  0.55701041  0.43809273  0.95074394    -0.72100
O604        O  0.93855734  0.06380449  0.95792356    -0.72200
O605        O  0.56369544  0.05885574  0.95595468    -0.72200
O606        O  0.93753872  0.44004059  0.95653824    -0.72300
O607        O  0.93756507  0.44079519  0.54501630    -0.72200
O608        O  0.56373591  0.05946382  0.54271103    -0.72200
O609        O  0.94198367  0.06585892  0.54763199    -0.72200
O610        O  0.56186272  0.44003942  0.54113443    -0.72200
Ni611      Ni  0.50022896  0.99976915  0.95240572     1.25400
Ni612      Ni  0.50175415  0.99925677  0.54600547     1.25400
C613        C  0.57813423  0.41663028  0.49623342     0.90000
C614        C  0.92478865  0.09015216  0.50337765     0.90000
C615        C  0.58889068  0.07717782  0.49852967     0.90000
C616        C  0.91415158  0.42513475  0.50041096     0.90200
C617        C  0.93309724  0.16905287  0.90201518    -0.14100
C618        C  0.93242106  0.18649297  0.95436354    -0.29300
H619        H  0.90448757  0.13267148  0.88937117     0.14900
H620        H  0.95523461  0.22817224  0.96308181     0.15500
C621        C  0.91121889  0.19139709  0.60320038    -0.14100
C622        C  0.93327886  0.18469414  0.55231014    -0.29300
H623        H  0.87074539  0.16870970  0.61689499     0.14900
H624        H  0.97955624  0.19841906  0.54571189     0.15500
C625        C  0.56532251  0.31988093  0.94594419    -0.14100
C626        C  0.58746355  0.31472363  0.89493284    -0.29300
H627        H  0.51962498  0.30440221  0.95250275     0.14900
H628        H  0.62729677  0.33881613  0.88154882     0.15500
C629        C  0.56557779  0.33381795  0.59570666    -0.14100
C630        C  0.56576497  0.31738091  0.54307615    -0.29300
H631        H  0.59484020  0.36955099  0.60857482     0.14900
H632        H  0.54250984  0.27616621  0.53367263     0.15500
C633        C  0.81525574  0.43438344  0.95186986    -0.14100
C634        C  0.83457775  0.43673637  0.89964449    -0.29300
H635        H  0.77192657  0.45436984  0.96035860     0.14900
H636        H  0.87235455  0.40978468  0.88631646     0.15500
C637        C  0.81897879  0.43670618  0.54919237    -0.14100
C638        C  0.81529909  0.41603845  0.60082985    -0.29300
H639        H  0.80095498  0.48125874  0.54176186     0.14900
H640        H  0.84091654  0.37714602  0.61362182     0.15500
C641        C  0.66919249  0.06784975  0.90087962    -0.14100
C642        C  0.68621884  0.06766493  0.95308039    -0.29300
H643        H  0.63279401  0.09647079  0.88778157     0.14900
H644        H  0.72767675  0.04468352  0.96160102     0.15500
C645        C  0.66609910  0.06794966  0.59993049    -0.15300
C646        C  0.68594485  0.07124353  0.54797634    -0.29300
H647        H  0.62658249  0.09231001  0.61327088     0.14900
H648        H  0.73105557  0.05479324  0.54028280     0.15500
O649        O  0.81862881  0.69345485  0.45537498    -0.72100
O650        O  0.69240746  0.81199025  0.45413450    -0.72200
O651        O  0.81421537  0.81627668  0.45407564    -0.72200
O652        O  0.69612157  0.68970852  0.45552246    -0.72300
O653        O  0.69083493  0.68409328  0.04608640    -0.72200
O654        O  0.80584237  0.81406044  0.04555625    -0.72200
O655        O  0.68392549  0.80689526  0.04465904    -0.72200
O656        O  0.81300057  0.69138080  0.04670716    -0.72200
Ni657      Ni  0.75536689  0.75280290  0.45173010     1.25400
Ni658      Ni  0.74839459  0.74907338  0.04893266     1.25400
C659        C  0.83856023  0.67406239  0.00288328     0.90000
C660        C  0.66291563  0.82450366  0.99928743     0.90000
C661        C  0.82850447  0.84038098  0.49872570     0.90000
C662        C  0.67753122  0.66507180  0.49973358     0.90200
C663        C  0.65250373  0.59573322  0.99967087    -0.00200
C664        C  0.69277880  0.51953802  0.13871184    -0.08600
C665        C  0.71891685  0.46829469  0.11669699    -0.02400
C666        C  0.77143423  0.94693273  0.13870408    -0.08500
C667        C  0.78253960  0.95607804  0.19369610     0.12400
C668        C  0.74433355  0.49462218  0.22217124    -0.00300
C669        C  0.70163094  0.53032678  0.19396774     0.12200
C670        C  0.66834975  0.57382256  0.22213748    -0.10300
C671        C  0.67544267  0.58119238  0.27730842    -0.10300
C672        C  0.71827766  0.54750737  0.30549132     0.12200
C673        C  0.75339698  0.50393302  0.27761993    -0.00300
C674        C  0.82602284  0.92272769  0.22136732    -0.10500
C675        C  0.83353260  0.92989712  0.27645277    -0.10500
C676        C  0.80001260  0.97286169  0.30501150     0.12400
C677        C  0.80905907  0.98320912  0.36015326    -0.08500
C678        C  0.78022872  0.53138260  0.38248368    -0.02400
C679        C  0.72905320  0.55693984  0.36047748    -0.08600
H680        H  0.63533235  0.60140874  0.20224430     0.09700
H681        H  0.64831565  0.61489395  0.29717583     0.09700
H682        H  0.85326439  0.88930581  0.20129827     0.09800
H683        H  0.86698621  0.90252674  0.29599656     0.09800
H684        H  0.70548748  0.45406039  0.07711766     0.06300
H685        H  0.79449711  0.54617897  0.42164744     0.06300
C686        C  0.84602937  0.90457608  0.99971882    -0.00200
C687        C  0.59665412  0.84479999  0.99646740    -0.00200
C688        C  0.52417124  0.79959673  0.13622652    -0.08600
C689        C  0.97108254  0.77784925  0.11671234    -0.02400
C690        C  0.94612143  0.72665644  0.14075137    -0.08500
C691        C  0.95638012  0.71647840  0.19589994     0.12400
C692        C  0.99975539  0.75247727  0.22198621    -0.00300
C693        C  0.53571035  0.79059798  0.19139822     0.12200
C694        C  0.58065350  0.82268597  0.21769603    -0.10300
C695        C  0.58758282  0.81699341  0.27315219    -0.10300
C696        C  0.55182134  0.77682585  0.30363727     0.12200
C697        C  0.00906053  0.74489691  0.27771978    -0.00300
C698        C  0.92343443  0.67369125  0.22596867    -0.10500
C699        C  0.93069869  0.66808794  0.28134425    -0.10500
C700        C  0.97334171  0.70297522  0.30791956     0.12400
C701        C  0.98298727  0.69662603  0.36364356    -0.08500
C702        C  0.03402972  0.72295659  0.38458427    -0.02400
C703        C  0.55945523  0.76865504  0.35951293    -0.08600
H704        H  0.60949771  0.85417219  0.19623604     0.09700
H705        H  0.62209692  0.84345505  0.29160657     0.09700
H706        H  0.89023330  0.64567380  0.20738797     0.09800
H707        H  0.90352407  0.63499921  0.30259149     0.09800
H708        H  0.95542725  0.79189417  0.07747104     0.06300
H709        H  0.04777136  0.71077071  0.42488762     0.06300
C710        C  0.90473645  0.65302025  0.00372552    -0.00200
O711        O  0.56187013  0.93814260  0.45176820    -0.72100
O712        O  0.94182453  0.56383902  0.45779210    -0.72200
O713        O  0.56540152  0.56514696  0.45458119    -0.72200
O714        O  0.94129716  0.94426829  0.45596541    -0.72300
O715        O  0.93501352  0.94016640  0.04504998    -0.72200
O716        O  0.55936328  0.56082309  0.04226208    -0.72200
O717        O  0.94080632  0.56134808  0.04766260    -0.72200
O718        O  0.55923297  0.93464678  0.04205631    -0.72200
Ni719      Ni  0.50287831  0.50508372  0.45181212     1.25400
Ni720      Ni  0.49837952  0.49967681  0.04522253     1.25400
C721        C  0.57575711  0.91118566  0.99722334     0.90000
C722        C  0.92439060  0.58628167  0.00343006     0.90000
C723        C  0.58576496  0.57682685  0.99821532     0.90000
C724        C  0.91208964  0.92403070  0.00040254     0.90200
C725        C  0.93947076  0.66850312  0.40277367    -0.14100
C726        C  0.93792664  0.68669827  0.45478202    -0.29300
H727        H  0.91034890  0.63252623  0.39023217     0.14900
H728        H  0.96046194  0.72852273  0.46359428     0.15500
C729        C  0.91515602  0.68421224  0.10426638    -0.14100
C730        C  0.93570013  0.68016757  0.05261507    -0.29300
H731        H  0.87547748  0.66010887  0.11806017     0.14900
H732        H  0.98105257  0.69613958  0.04517697     0.15500
C733        C  0.56899345  0.81886368  0.44647467    -0.14100
C734        C  0.59099763  0.81133950  0.39552627    -0.29300
H735        H  0.52271818  0.80523380  0.45317649     0.14900
H736        H  0.63149093  0.83373833  0.38149222     0.15500
C737        C  0.56626931  0.82884963  0.09656300    -0.14100
C738        C  0.56548441  0.81232369  0.04408249    -0.29300
H739        H  0.59584911  0.86453983  0.10900034     0.14900
H740        H  0.54153125  0.77149843  0.03477942     0.15500
C741        C  0.81894302  0.93578901  0.44927213    -0.14100
C742        C  0.83989999  0.94078043  0.39771951    -0.29300
H743        H  0.77379871  0.95231227  0.45653632     0.14900
H744        H  0.87942361  0.91646764  0.38441613     0.15500
C745        C  0.81494163  0.93589951  0.04749698    -0.14100
C746        C  0.81460404  0.91816874  0.10000243    -0.29300
H747        H  0.78997224  0.97617492  0.03837506     0.14900
H748        H  0.84401805  0.88226242  0.11311267     0.15500
C749        C  0.68686134  0.58739705  0.39870394    -0.14100
C750        C  0.68409119  0.56756672  0.45064221    -0.29300
H751        H  0.66123623  0.62625127  0.38581569     0.14900
H752        H  0.70237021  0.52321517  0.45840437     0.15500
C753        C  0.66231923  0.56170912  0.10033958    -0.15300
C754        C  0.68191765  0.56445826  0.04815439    -0.29300
H755        H  0.62432820  0.58833963  0.11368290     0.14900
H756        H  0.72548240  0.54488233  0.03990281     0.15500
O757        O  0.81543604  0.68945869  0.95782912    -0.72100
O758        O  0.69058634  0.80947981  0.95591262    -0.72200
O759        O  0.81216578  0.81192305  0.95704819    -0.72200
O760        O  0.69272447  0.68728820  0.95718359    -0.72300
O761        O  0.69236798  0.68861986  0.54446243    -0.72200
O762        O  0.81002354  0.81582578  0.54303613    -0.72200
O763        O  0.68755214  0.81110939  0.54298152    -0.72200
O764        O  0.81408521  0.69308333  0.54424298    -0.72200
Ni765      Ni  0.75279530  0.74944516  0.95403920     1.25400
Ni766      Ni  0.75108034  0.75224671  0.54675073     1.25400
C767        C  0.84044345  0.67655718  0.50059464     0.90000
C768        C  0.66543236  0.82747225  0.49774328     0.90000
C769        C  0.82495924  0.83778655  0.00108183     0.90000
C770        C  0.67486745  0.66167567  0.00112805     0.90200
C771        C  0.65569222  0.59902291  0.49951933    -0.00200
C772        C  0.69591297  0.52315897  0.63834293    -0.08600
C773        C  0.72153555  0.47177070  0.61617206    -0.02400
C774        C  0.77543247  0.95030609  0.63648600    -0.08500
C775        C  0.78379326  0.95677358  0.69216378     0.12400
C776        C  0.74588834  0.49666656  0.72210434    -0.00300
C777        C  0.70394356  0.53310154  0.69378165     0.12200
C778        C  0.67053017  0.57647464  0.72197547    -0.10300
C779        C  0.67669699  0.58296582  0.77731773    -0.10300
C780        C  0.71873201  0.54848132  0.80568928     0.12200
C781        C  0.75413601  0.50518657  0.77775566    -0.00300
C782        C  0.82751582  0.92406586  0.72021140    -0.10500
C783        C  0.82737636  0.92334426  0.77635962    -0.10500
C784        C  0.78368711  0.95549998  0.80551192     0.12400
C785        C  0.77505224  0.94769210  0.86141574    -0.08500
C786        C  0.77919852  0.53087667  0.88336246    -0.02400
C787        C  0.72841097  0.55681120  0.86098234    -0.08600
H788        H  0.63806611  0.60462365  0.70197439     0.09700
H789        H  0.64952348  0.61661983  0.79719486     0.09700
H790        H  0.85981461  0.89604269  0.69941745     0.09800
H791        H  0.85948636  0.89481078  0.79645153     0.09800
H792        H  0.70823057  0.45805604  0.57640747     0.06300
H793        H  0.79273192  0.54494464  0.92296062     0.06300
C794        C  0.84925227  0.90682919  0.49839482    -0.00200
C795        C  0.59893505  0.84687728  0.49572051    -0.00200
C796        C  0.52474140  0.80392261  0.63584446    -0.08600
C797        C  0.97010430  0.77982025  0.61587921    -0.02400
C798        C  0.94373629  0.72927067  0.63999429    -0.08500
C799        C  0.95228083  0.71949243  0.69545269     0.12400
C800        C  0.99620271  0.75434970  0.72184763    -0.00300
C801        C  0.53474813  0.79516522  0.69143735     0.12200
C802        C  0.58007368  0.82602914  0.71831672    -0.10300
C803        C  0.58644866  0.81952262  0.77382293    -0.10300
C804        C  0.54969067  0.77965477  0.80375310     0.12200
C805        C  0.00499594  0.74605663  0.77766214    -0.00300
C806        C  0.91734659  0.67808074  0.72543799    -0.10500
C807        C  0.92409300  0.67194755  0.78092148    -0.10500
C808        C  0.96820321  0.70469020  0.80767946     0.12400
C809        C  0.97853973  0.69655125  0.86328733    -0.08500
C810        C  0.03051772  0.72127790  0.88396672    -0.02400
C811        C  0.55749977  0.76967431  0.85933199    -0.08600
H812        H  0.60992895  0.85683249  0.69715420     0.09700
H813        H  0.62158422  0.84475996  0.79270070     0.09700
H814        H  0.88318089  0.65145265  0.70664333     0.09800
H815        H  0.89554802  0.63997307  0.80214038     0.09800
H816        H  0.95540628  0.79373557  0.57630007     0.06300
H817        H  0.04462732  0.70789366  0.92387571     0.06300
C818        C  0.90635432  0.65488576  0.50262791    -0.00200
O819        O  0.55911735  0.93614493  0.95307909    -0.72100
O820        O  0.94030910  0.56226772  0.95872090    -0.72200
O821        O  0.56316955  0.56065307  0.95332185    -0.72200
O822        O  0.93699718  0.94119972  0.95579665    -0.72300
O823        O  0.93786214  0.94299985  0.54487803    -0.72200
O824        O  0.56390227  0.56239661  0.54352095    -0.72200
O825        O  0.94257980  0.56340716  0.54669375    -0.72200
O826        O  0.56176679  0.93706269  0.54075831    -0.72200
Ni827      Ni  0.49880168  0.50221338  0.95013551     1.25400
Ni828      Ni  0.50193443  0.50224690  0.54686205     1.25400
C829        C  0.57818530  0.91327977  0.49605161     0.90000
C830        C  0.92595523  0.58807459  0.50244492     0.90000
C831        C  0.58904953  0.57995269  0.49928851     0.90000
C832        C  0.91544703  0.92709912  0.49988281     0.90200
C833        C  0.93575890  0.66739483  0.90279857    -0.14100
C834        C  0.93508394  0.68503010  0.95511086    -0.29300
H835        H  0.90711582  0.63096600  0.89030977     0.14900
H836        H  0.95756128  0.72694845  0.96367583     0.15500
C837        C  0.91414454  0.68628462  0.60321872    -0.14100
C838        C  0.93619232  0.68186681  0.55208863    -0.29300
H839        H  0.87436334  0.66193219  0.61636580     0.14900
H840        H  0.98174737  0.69776240  0.54556976     0.15500
C841        C  0.56723453  0.81761366  0.94683507    -0.14100
C842        C  0.58969562  0.81085664  0.89604303    -0.29300
H843        H  0.52060474  0.80474391  0.95287032     0.14900
H844        H  0.63067839  0.83284783  0.88264958     0.15500
C845        C  0.56831189  0.83199707  0.59648102    -0.14100
C846        C  0.56846804  0.81460207  0.54409988    -0.29300
H847        H  0.59746326  0.86804056  0.60895620     0.14900
H848        H  0.54485027  0.77341721  0.53528157     0.15500
C849        C  0.82000646  0.93607889  0.94975063    -0.14100
C850        C  0.81668643  0.91592001  0.89852307    -0.29300
H851        H  0.80528545  0.98215139  0.95509885     0.14900
H852        H  0.84052651  0.87609110  0.88542807     0.15500
C853        C  0.81949460  0.93854464  0.54624711    -0.14100
C854        C  0.81780572  0.91999862  0.59848987    -0.29300
H855        H  0.79966248  0.98205029  0.53744866     0.14900
H856        H  0.84445856  0.88201171  0.61174504     0.15500
C857        C  0.68520294  0.58607501  0.89905388    -0.14100
C858        C  0.68168395  0.56523692  0.95065391    -0.29300
H859        H  0.65939458  0.62490285  0.88638211     0.14900
H860        H  0.70015051  0.52086806  0.95797923     0.15500
C861        C  0.66643501  0.56612432  0.60016719    -0.15300
C862        C  0.68606556  0.56882599  0.54802657    -0.29300
H863        H  0.62857423  0.59296072  0.61346960     0.14900
H864        H  0.72955209  0.54907288  0.53964985     0.15500
loop_ 
_geom_bond_atom_site_label_1 
_geom_bond_atom_site_label_2 
_geom_bond_distance 
_geom_bond_site_symmetry_2 
_ccdc_geom_bond_type 
O1           Ni9   1.935       .  S
O1          C119   1.286       .  A
O2           Ni9   1.926       .  S
O2          C120   1.282       .  A
O3           Ni9   1.930       .  S
O3           C13   1.284       .  A
O4           Ni9   1.927       .  S
O4           C14   1.284       .  A
O5          Ni10   1.928       .  S
O5          C122   1.284   1_554  A
O6          Ni10   1.925       .  S
O6          C121   1.283       .  A
O7          Ni10   1.929       .  S
O7           C12   1.285   1_554  A
O8          Ni10   1.930       .  S
O8           C11   1.284       .  A
Ni9        Ni118   2.363       .  S
Ni10       Ni117   2.363   1_554  S
C11         O109   1.286   1_554  A
C11          C62   1.553       .  S
C12         O110   1.282       .  A
C12          C39   1.547       .  S
C13         O114   1.285       .  A
C13         C146   1.547       .  S
C14         O113   1.285       .  A
C14         C123   1.548       .  S
C15          C75   1.559   1_556  S
C15         C122   1.538       .  S
C15         C106   1.543   1_556  S
C15         C210   1.535       .  S
C16          C17   1.395   1_545  A
C16          C21   1.415       .  A
C16         C105   1.502       .  S
C17         C234   1.393       .  A
C17          H36   1.085       .  S
C18          C19   1.407       .  A
C18         C233   1.394       .  A
C18          C98   1.491       .  S
C19          C26   1.404       .  A
C19         C236   1.423       .  A
C20          C21   1.427   1_565  A
C20          C25   1.414   1_565  A
C20         C235   1.423       .  A
C21          C22   1.405       .  A
C22          C23   1.396       .  A
C22          H32   1.081       .  S
C23          C24   1.406       .  A
C23          H33   1.081       .  S
C24          C25   1.423       .  A
C24          C31   1.411       .  A
C25         C244   1.426   1_545  A
C26          C27   1.393       .  A
C26          H34   1.081       .  S
C27          C28   1.404       .  A
C27          H35   1.081       .  S
C28          C29   1.412       .  A
C28         C241   1.427       .  A
C29         C246   1.393       .  A
C29          C94   1.496       .  S
C30          C31   1.394       .  A
C30         C245   1.391   1_545  A
C30          H37   1.085       .  S
C31         C101   1.492       .  S
C38          C76   1.539   1_554  S
C38         C121   1.558       .  S
C38          C97   1.542       .  S
C38         C201   1.540   1_554  S
C39          C73   1.545       .  S
C39          C90   1.536   1_556  S
C39         C193   1.537       .  S
C40          C45   1.412       .  A
C40         C473   1.392   1_455  A
C40          C89   1.493       .  S
C41          C42   1.392       .  A
C41         C472   1.393       .  A
C41          H60   1.085       .  S
C42          C43   1.411       .  A
C42          C81   1.495       .  S
C43          C44   1.425       .  A
C43          C50   1.404       .  A
C44          C49   1.415       .  A
C44         C477   1.425       .  A
C45          C46   1.406       .  A
C45         C476   1.424   1_455  A
C46          C47   1.395       .  A
C46          H56   1.080       .  S
C47          C48   1.404       .  A
C47          H57   1.081       .  S
C48          C55   1.413       .  A
C48         C481   1.427       .  A
C49          C52   1.425       .  A
C49         C480   1.426       .  A
C50          C51   1.395       .  A
C50          H58   1.081       .  S
C51          C52   1.407       .  A
C51          H59   1.080       .  S
C52          C53   1.413       .  A
C53          C54   1.393       .  A
C53          C77   1.495       .  S
C54         C487   1.392       .  A
C54          H61   1.085       .  S
C55         C486   1.391       .  A
C55          C86   1.498       .  S
C62          C74   1.550       .  S
C62          C82   1.541       .  S
C62         C186   1.543   1_554  S
O63        Ni287   1.931       .  S
O63         C181   1.285       .  A
O64        Ni503   1.928       .  S
O64         C182   1.285       .  A
O65         Ni71   1.933       .  S
O65         C183   1.286       .  A
O66        Ni719   1.919       .  S
O66         C184   1.281       .  A
O67        Ni720   1.930       .  S
O67          C76   1.286   1_554  A
O68         Ni72   1.926   1_445  S
O68          C75   1.283       .  A
O69        Ni504   1.937   1_545  S
O69          C74   1.286       .  A
O70        Ni288   1.925   1_455  S
O70          C73   1.284   1_554  A
Ni71        O279   1.929   1_545  S
Ni71        O496   1.927   1_455  S
Ni71        O714   1.918   1_445  S
Ni71       Ni180   2.364       .  S
Ni72        O715   1.935       .  S
Ni72        O501   1.932   1_565  S
Ni72        O286   1.926   1_655  S
Ni72       Ni179   2.364   1_564  S
C73         O171   1.284       .  A
C74         O172   1.284   1_554  A
C75         O173   1.283   1_554  A
C76         O174   1.287       .  A
C77          C78   1.361       .  D
C77          H79   1.083       .  S
C78         C170   1.537       .  S
C78          H80   1.083       .  S
C81          C82   1.361       .  D
C81          H83   1.083       .  S
C82          H84   1.085       .  S
C85         C147   1.542       .  S
C85          C86   1.363       .  D
C85          H87   1.085       .  S
C86          H88   1.082       .  S
C89          C90   1.360       .  D
C89          H91   1.083       .  S
C90          H92   1.082       .  S
C93         C146   1.539       .  S
C93          C94   1.360       .  D
C93          H95   1.085       .  S
C94          H96   1.083       .  S
C97          C98   1.357       .  D
C97          H99   1.083       .  S
C98         H100   1.083       .  S
C101        C102   1.359       .  D
C101        H103   1.084       .  S
C102        C123   1.535       .  S
C102        H104   1.086       .  S
C105        C106   1.362       .  D
C105        H107   1.083       .  S
C106        H108   1.078       .  S
O109       Ni117   1.936       .  S
O110       Ni117   1.924       .  S
O111       Ni117   1.930       .  S
O111        C121   1.283   1_556  A
O112       Ni117   1.934       .  S
O112        C122   1.289       .  A
O113       Ni118   1.930       .  S
O114       Ni118   1.929       .  S
O115       Ni118   1.931       .  S
O115        C120   1.286       .  A
O116       Ni118   1.929       .  S
O116        C119   1.284       .  A
C119        C170   1.553       .  S
C120        C147   1.547       .  S
C123        C183   1.549       .  S
C123        C214   1.535       .  S
C124        C125   1.391   1_545  A
C124        C129   1.410       .  A
C124        C213   1.494       .  S
C125        C342   1.394       .  A
C125        H144   1.085       .  S
C126        C341   1.393       .  A
C126        C127   1.409       .  A
C126        C206   1.489       .  S
C127        C344   1.422       .  A
C127        C134   1.406       .  A
C128        C343   1.421       .  A
C128        C129   1.426   1_565  A
C128        C133   1.406       .  A
C129        C130   1.405       .  A
C130        C131   1.395       .  A
C130        H140   1.081       .  S
C131        C132   1.406       .  A
C131        H141   1.081       .  S
C132        C133   1.421   1_545  A
C132        C139   1.406       .  A
C133        C352   1.426       .  A
C134        C135   1.398       .  A
C134        H142   1.081       .  S
C135        C136   1.406       .  A
C135        H143   1.081       .  S
C136        C349   1.426       .  A
C136        C137   1.414       .  A
C137        C354   1.393       .  A
C137        C202   1.500       .  S
C138        C353   1.393       .  A
C138        C139   1.393   1_565  A
C138        H145   1.085       .  S
C139        C209   1.488       .  S
C146        C184   1.543       .  S
C146        C205   1.531       .  S
C147        C181   1.547       .  S
C147        C198   1.540       .  S
C148        C581   1.392   1_455  A
C148        C153   1.414       .  A
C148        C197   1.497       .  S
C149        C580   1.392       .  A
C149        C150   1.392       .  A
C149        H168   1.085       .  S
C150        C151   1.409       .  A
C150        C189   1.492       .  S
C151        C152   1.423       .  A
C151        C158   1.405       .  A
C152        C585   1.428       .  A
C152        C157   1.415       .  A
C153        C584   1.427   1_455  A
C153        C154   1.405       .  A
C154        C155   1.395       .  A
C154        H164   1.081       .  S
C155        C156   1.405       .  A
C155        H165   1.081       .  S
C156        C589   1.424       .  A
C156        C163   1.410       .  A
C157        C588   1.423       .  A
C157        C160   1.428       .  A
C158        C159   1.395       .  A
C158        H166   1.081       .  S
C159        C160   1.405       .  A
C159        H167   1.080       .  S
C160        C161   1.416       .  A
C161        C162   1.392       .  A
C161        C185   1.501       .  S
C162        C595   1.393       .  A
C162        H169   1.085       .  S
C163        C594   1.392       .  A
C163        C194   1.492       .  S
C170        C182   1.550       .  S
C170        C190   1.537       .  S
O171       Ni395   1.928   1_455  S
O172       Ni611   1.926   1_545  S
O173       Ni179   1.930   1_455  S
O174       Ni827   1.934       .  S
O175       Ni828   1.930       .  S
O175        C184   1.286       .  A
O176       Ni180   1.929       .  S
O176        C183   1.284       .  A
O177       Ni612   1.932   1_545  S
O177        C182   1.285       .  A
O178       Ni396   1.926       .  S
O178        C181   1.285       .  A
Ni179       O387   1.927   1_645  S
Ni179       O604   1.929       .  S
Ni179       O822   1.925   1_545  S
Ni180       O823   1.935   1_445  S
Ni180       O609   1.931   1_455  S
Ni180       O394   1.926   1_545  S
C185        C186   1.364       .  D
C185        H187   1.083       .  S
C186        H188   1.082       .  S
C189        C190   1.359       .  D
C189        H191   1.083       .  S
C190        H192   1.086       .  S
C193        C194   1.360       .  D
C193        H195   1.085       .  S
C194        H196   1.082       .  S
C197        C198   1.363       .  D
C197        H199   1.084       .  S
C198        H200   1.083       .  S
C201        C202   1.362       .  D
C201        H203   1.078       .  S
C202        H204   1.083       .  S
C205        C206   1.357       .  D
C205        H207   1.085       .  S
C206        H208   1.084       .  S
C209        C210   1.356       .  D
C209        H211   1.083       .  S
C210        H212   1.083       .  S
C213        C214   1.359       .  D
C213        H215   1.083       .  S
C214        H216   1.085       .  S
O217       Ni225   1.935       .  S
O217        C335   1.286       .  A
O218       Ni225   1.926       .  S
O218        C336   1.283       .  A
O219       Ni225   1.929       .  S
O219        C229   1.283       .  A
O220       Ni225   1.925       .  S
O220        C230   1.283       .  A
O221       Ni226   1.930       .  S
O221        C338   1.284       .  A
O222       Ni226   1.925       .  S
O222        C337   1.283       .  A
O223       Ni226   1.930       .  S
O223        C228   1.286   1_554  A
O224       Ni226   1.928       .  S
O224        C227   1.284       .  A
Ni225      Ni334   2.362       .  S
Ni226      Ni333   2.363   1_554  S
C227        O325   1.285   1_554  A
C227        C278   1.548       .  S
C228        O326   1.281       .  A
C228        C255   1.546       .  S
C229        O330   1.286       .  A
C229        C362   1.549       .  S
C230        O329   1.285       .  A
C230        C339   1.549       .  S
C231        C338   1.539   1_556  S
C231        C291   1.558   1_556  S
C231        C426   1.537       .  S
C231        C322   1.544   1_556  S
C232        C233   1.394       .  A
C232        C237   1.414       .  A
C232        C321   1.502       .  S
C233        H252   1.085       .  S
C234        C235   1.407       .  A
C234        C314   1.493       .  S
C235        C242   1.404       .  A
C236        C237   1.427       .  A
C236        C241   1.413       .  A
C237        C238   1.404       .  A
C238        C239   1.394       .  A
C238        H248   1.081       .  S
C239        C240   1.405       .  A
C239        H249   1.081       .  S
C240        C241   1.423       .  A
C240        C247   1.409       .  A
C242        C243   1.392       .  A
C242        H250   1.081       .  S
C243        C244   1.404       .  A
C243        H251   1.080       .  S
C244        C245   1.411       .  A
C245        C310   1.496       .  S
C246        C247   1.394       .  A
C246        H253   1.085       .  S
C247        C317   1.491       .  S
C254        C337   1.559       .  S
C254        C292   1.539       .  S
C254        C417   1.540   1_554  S
C254        C313   1.543       .  S
C255        C289   1.545       .  S
C255        C409   1.540       .  S
C255        C306   1.534   1_556  S
C256        C689   1.392   1_455  A
C256        C261   1.412       .  A
C256        C305   1.492       .  S
C257        C688   1.392       .  A
C257        C258   1.391       .  A
C257        H276   1.085       .  S
C258        C259   1.412       .  A
C258        C297   1.496       .  S
C259        C260   1.427       .  A
C259        C266   1.403       .  A
C260        C693   1.425       .  A
C260        C265   1.414       .  A
C261        C692   1.424   1_455  A
C261        C262   1.406       .  A
C262        C263   1.395       .  A
C262        H272   1.080       .  S
C263        C264   1.404       .  A
C263        H273   1.082       .  S
C264        C697   1.425       .  A
C264        C271   1.411       .  A
C265        C696   1.427       .  A
C265        C268   1.424       .  A
C266        C267   1.395       .  A
C266        H274   1.081       .  S
C267        C268   1.407       .  A
C267        H275   1.081       .  S
C268        C269   1.412       .  A
C269        C270   1.393       .  A
C269        C293   1.492       .  S
C270        C703   1.390       .  A
C270        H277   1.085       .  S
C271        C702   1.392       .  A
C271        C302   1.494       .  S
C278        C290   1.548       .  S
C278        C402   1.541   1_554  S
C278        C298   1.538       .  S
O279        C397   1.284       .  A
O280       Ni719   1.927       .  S
O280        C398   1.285       .  A
O281       Ni287   1.935       .  S
O281        C399   1.286       .  A
O282       Ni503   1.923   1_565  S
O282        C400   1.282       .  A
O283       Ni504   1.930       .  S
O283        C292   1.286       .  A
O284       Ni288   1.929   1_455  S
O284        C291   1.284       .  A
O285       Ni720   1.932       .  S
O285        C290   1.285       .  A
O286        C289   1.285   1_554  A
Ni287       O712   1.928   1_455  S
Ni287       O498   1.923   1_455  S
Ni287      Ni396   2.365       .  S
Ni288       O499   1.937       .  S
Ni288       O717   1.929       .  S
Ni288      Ni395   2.363   1_554  S
C289        O387   1.284       .  A
C290        O388   1.285   1_554  A
C291        O389   1.283   1_554  A
C292        O390   1.286   1_554  A
C293        C294   1.360       .  D
C293        H295   1.083       .  S
C294        C386   1.536       .  S
C294        H296   1.083       .  S
C297        C298   1.361       .  D
C297        H299   1.083       .  S
C298        H300   1.085       .  S
C301        C363   1.543       .  S
C301        C302   1.361       .  D
C301        H303   1.086       .  S
C302        H304   1.083       .  S
C305        C306   1.361       .  D
C305        H307   1.083       .  S
C306        H308   1.081       .  S
C309        C362   1.539       .  S
C309        C310   1.359       .  D
C309        H311   1.085       .  S
C310        H312   1.082       .  S
C313        C314   1.358       .  D
C313        H315   1.082       .  S
C314        H316   1.083       .  S
C317        C318   1.357       .  D
C317        H319   1.083       .  S
C318        C339   1.536       .  S
C318        H320   1.086       .  S
C321        C322   1.362       .  D
C321        H323   1.083       .  S
C322        H324   1.078       .  S
O325       Ni333   1.931       .  S
O326       Ni333   1.922       .  S
O327       Ni333   1.932       .  S
O327        C337   1.283   1_556  A
O328       Ni333   1.934       .  S
O328        C338   1.289   1_556  A
O329       Ni334   1.932       .  S
O330       Ni334   1.933       .  S
O331       Ni334   1.930       .  S
O331        C336   1.284       .  A
O332       Ni334   1.926       .  S
O332        C335   1.283       .  A
C335        C386   1.551       .  S
C336        C363   1.548       .  S
C339        C399   1.548       .  S
C339        C430   1.534       .  S
C340        C341   1.392       .  A
C340        C345   1.412       .  A
C340        C429   1.494       .  S
C341        H360   1.085       .  S
C342        C343   1.409       .  A
C342        C422   1.488       .  S
C343        C350   1.407       .  A
C344        C345   1.425       .  A
C344        C349   1.406       .  A
C345        C346   1.406       .  A
C346        C347   1.397       .  A
C346        H356   1.081       .  S
C347        C348   1.406       .  A
C347        H357   1.082       .  S
C348        C349   1.422       .  A
C348        C355   1.407       .  A
C350        C351   1.398       .  A
C350        H358   1.081       .  S
C351        C352   1.405       .  A
C351        H359   1.081       .  S
C352        C353   1.414       .  A
C353        C418   1.499       .  S
C354        C355   1.394       .  A
C354        H361   1.085       .  S
C355        C425   1.490       .  S
C362        C400   1.546       .  S
C362        C421   1.530       .  S
C363        C397   1.545       .  S
C363        C414   1.541       .  S
C364        C797   1.392   1_455  A
C364        C369   1.416       .  A
C364        C413   1.500       .  S
C365        C796   1.392       .  A
C365        C366   1.392       .  A
C365        H384   1.085       .  S
C366        C367   1.409       .  A
C366        C405   1.492       .  S
C367        C368   1.424       .  A
C367        C374   1.404       .  A
C368        C801   1.427       .  A
C368        C373   1.415       .  A
C369        C800   1.428   1_455  A
C369        C370   1.406       .  A
C370        C371   1.396       .  A
C370        H380   1.080       .  S
C371        C372   1.405       .  A
C371        H381   1.081       .  S
C372        C805   1.424       .  A
C372        C379   1.411       .  A
C373        C804   1.424       .  A
C373        C376   1.427       .  A
C374        C375   1.394       .  A
C374        H382   1.081       .  S
C375        C376   1.405       .  A
C375        H383   1.080       .  S
C376        C377   1.414       .  A
C377        C378   1.392       .  A
C377        C401   1.497       .  S
C378        C811   1.392       .  A
C378        H385   1.085       .  S
C379        C810   1.392       .  A
C379        C410   1.494       .  S
C386        C398   1.552       .  S
C386        C406   1.537       .  S
O388       Ni827   1.926       .  S
O389       Ni395   1.927   1_455  S
O390       Ni611   1.932       .  S
O391       Ni612   1.931       .  S
O391        C400   1.286       .  A
O392       Ni396   1.926       .  S
O392        C399   1.284       .  A
O393       Ni828   1.934       .  S
O393        C398   1.285       .  A
O394        C397   1.284       .  A
Ni395       O820   1.927       .  S
Ni395       O606   1.922       .  S
Ni396       O607   1.934   1_455  S
Ni396       O825   1.927   1_455  S
C401        C402   1.362       .  D
C401        H403   1.083       .  S
C402        H404   1.084       .  S
C405        C406   1.359       .  D
C405        H407   1.082       .  S
C406        H408   1.085       .  S
C409        C410   1.361       .  D
C409        H411   1.086       .  S
C410        H412   1.083       .  S
C413        C414   1.364       .  D
C413        H415   1.083       .  S
C414        H416   1.081       .  S
C417        C418   1.362       .  D
C417        H419   1.079       .  S
C418        H420   1.083       .  S
C421        C422   1.357       .  D
C421        H423   1.086       .  S
C422        H424   1.084       .  S
C425        C426   1.357       .  D
C425        H427   1.083       .  S
C426        H428   1.084       .  S
C429        C430   1.360       .  D
C429        H431   1.083       .  S
C430        H432   1.084       .  S
O433       Ni441   1.932       .  S
O433        C551   1.286       .  A
O434       Ni441   1.924       .  S
O434        C552   1.282       .  A
O435       Ni441   1.929       .  S
O435        C445   1.284       .  A
O436       Ni441   1.925       .  S
O436        C446   1.284       .  A
O437       Ni442   1.924       .  S
O437        C554   1.284   1_554  A
O438       Ni442   1.922       .  S
O438        C553   1.283   1_554  A
O439       Ni442   1.934       .  S
O439        C444   1.285   1_554  A
O440       Ni442   1.931       .  S
O440        C443   1.284       .  A
Ni441      Ni550   2.363       .  S
Ni442      Ni549   2.365   1_554  S
C443        O541   1.286   1_554  A
C443        C494   1.549       .  S
C444        O542   1.282       .  A
C444        C471   1.548       .  S
C445        O546   1.284       .  A
C445        C578   1.546       .  S
C446        O545   1.284       .  A
C446        C555   1.545       .  S
C447        C554   1.538   1_554  S
C447        C507   1.559       .  S
C447        C642   1.535   1_554  S
C447        C538   1.545       .  S
C448        C449   1.393   1_545  A
C448        C453   1.408       .  A
C448        C537   1.494       .  S
C449        C666   1.395       .  A
C449        H468   1.085       .  S
C450        C665   1.393       .  A
C450        C451   1.410       .  A
C450        C530   1.493       .  S
C451        C668   1.424       .  A
C451        C458   1.406       .  A
C452        C667   1.425       .  A
C452        C453   1.425   1_565  A
C452        C457   1.413   1_565  A
C453        C454   1.403       .  A
C454        C455   1.393       .  A
C454        H464   1.081       .  S
C455        C456   1.406       .  A
C455        H465   1.081       .  S
C456        C457   1.424       .  A
C456        C463   1.409       .  A
C457        C676   1.425   1_545  A
C458        C459   1.395       .  A
C458        H466   1.081       .  S
C459        C460   1.404       .  A
C459        H467   1.081       .  S
C460        C673   1.428       .  A
C460        C461   1.415       .  A
C461        C678   1.392       .  A
C461        C526   1.499       .  S
C462        C677   1.392   1_545  A
C462        C463   1.393       .  A
C462        H469   1.085       .  S
C463        C533   1.492       .  S
C470        C553   1.547   1_554  S
C470        C508   1.546       .  S
C470        C633   1.540   1_554  S
C470        C529   1.537       .  S
C471        C505   1.545       .  S
C471        C625   1.538       .  S
C471        C522   1.537   1_556  S
C472        C477   1.413       .  A
C472        C521   1.495       .  S
C473        C474   1.392       .  A
C473        H492   1.085       .  S
C474        C475   1.414       .  A
C474        C513   1.498       .  S
C475        C476   1.427       .  A
C475        C482   1.403       .  A
C476        C481   1.415   1_655  A
C477        C478   1.406       .  A
C478        C479   1.395       .  A
C478        H488   1.080       .  S
C479        C480   1.403       .  A
C479        H489   1.082       .  S
C480        C487   1.412       .  A
C481        C484   1.424   1_455  A
C482        C483   1.396       .  A
C482        H490   1.081       .  S
C483        C484   1.407       .  A
C483        H491   1.081       .  S
C484        C485   1.413       .  A
C485        C486   1.393   1_655  A
C485        C509   1.494       .  S
C486        H493   1.085       .  S
C487        C518   1.496       .  S
C494        C506   1.548       .  S
C494        C618   1.542   1_554  S
C494        C514   1.540       .  S
O495       Ni719   1.927       .  S
O495        C613   1.284       .  A
O496        C614   1.284       .  A
O497       Ni503   1.935       .  S
O497        C615   1.287       .  A
O498        C616   1.282       .  A
O499        C508   1.287       .  A
O500       Ni504   1.920   1_545  S
O500        C507   1.280       .  A
O501        C506   1.286       .  A
O502       Ni720   1.926       .  S
O502        C505   1.284   1_554  A
Ni503       O711   1.930   1_545  S
Ni503      Ni612   2.364   1_545  S
Ni504       O718   1.928       .  S
Ni504      Ni611   2.364   1_554  S
C505        O603   1.285       .  A
C506        O604   1.284   1_554  A
C507        O605   1.285   1_554  A
C508        O606   1.282   1_554  A
C509        C510   1.362       .  D
C509        H511   1.083       .  S
C510        C602   1.538       .  S
C510        H512   1.083       .  S
C513        C514   1.362       .  D
C513        H515   1.083       .  S
C514        H516   1.084       .  S
C517        C579   1.542       .  S
C517        C518   1.361       .  D
C517        H519   1.086       .  S
C518        H520   1.083       .  S
C521        C522   1.361       .  D
C521        H523   1.083       .  S
C522        H524   1.082       .  S
C525        C578   1.540       .  S
C525        C526   1.363       .  D
C525        H527   1.082       .  S
C526        H528   1.083       .  S
C529        C530   1.360       .  D
C529        H531   1.083       .  S
C530        H532   1.083       .  S
C533        C534   1.358       .  D
C533        H535   1.083       .  S
C534        C555   1.534       .  S
C534        H536   1.084       .  S
C537        C538   1.359       .  D
C537        H539   1.083       .  S
C538        H540   1.082       .  S
O541       Ni549   1.931       .  S
O542       Ni549   1.923       .  S
O543       Ni549   1.934       .  S
O543        C553   1.285       .  A
O544       Ni549   1.937       .  S
O544        C554   1.288       .  A
O545       Ni550   1.926       .  S
O546       Ni550   1.925       .  S
O547       Ni550   1.932       .  S
O547        C552   1.285       .  A
O548       Ni550   1.927       .  S
O548        C551   1.283       .  A
C551        C602   1.550       .  S
C552        C579   1.546       .  S
C555        C615   1.547       .  S
C555        C646   1.535       .  S
C556        C557   1.392   1_545  A
C556        C561   1.411       .  A
C556        C645   1.493       .  S
C557        C774   1.392       .  A
C557        H576   1.085       .  S
C558        C773   1.393       .  A
C558        C559   1.411       .  A
C558        C638   1.494       .  S
C559        C776   1.424       .  A
C559        C566   1.405       .  A
C560        C775   1.424       .  A
C560        C561   1.424   1_565  A
C560        C565   1.407       .  A
C561        C562   1.405       .  A
C562        C563   1.397       .  A
C562        H572   1.081       .  S
C563        C564   1.407       .  A
C563        H573   1.081       .  S
C564        C565   1.424   1_545  A
C564        C571   1.411       .  A
C565        C784   1.424       .  A
C566        C567   1.395       .  A
C566        H574   1.081       .  S
C567        C568   1.405       .  A
C567        H575   1.081       .  S
C568        C781   1.427       .  A
C568        C569   1.414       .  A
C569        C786   1.392       .  A
C569        C634   1.498       .  S
C570        C785   1.392       .  A
C570        C571   1.394   1_565  A
C570        H577   1.085       .  S
C571        C641   1.495       .  S
C578        C616   1.545       .  S
C578        C637   1.537       .  S
C579        C613   1.544       .  S
C579        C630   1.541       .  S
C580        C585   1.416       .  A
C580        C629   1.499       .  S
C581        C582   1.392       .  A
C581        H600   1.085       .  S
C582        C583   1.410       .  A
C582        C621   1.493       .  S
C583        C584   1.424       .  A
C583        C590   1.405       .  A
C584        C589   1.415   1_655  A
C585        C586   1.405       .  A
C586        C587   1.395       .  A
C586        H596   1.081       .  S
C587        C588   1.405       .  A
C587        H597   1.081       .  S
C588        C595   1.410       .  A
C589        C592   1.427   1_455  A
C590        C591   1.395       .  A
C590        H598   1.081       .  S
C591        C592   1.405       .  A
C591        H599   1.081       .  S
C592        C593   1.415       .  A
C593        C594   1.392   1_655  A
C593        C617   1.498       .  S
C594        H601   1.085       .  S
C595        C626   1.492       .  S
C602        C614   1.548       .  S
C602        C622   1.538       .  S
O603       Ni827   1.927       .  S
O605       Ni611   1.935   1_545  S
O607        C616   1.287       .  A
O608       Ni612   1.924   1_545  S
O608        C615   1.283       .  A
O609        C614   1.285       .  A
O610       Ni828   1.927       .  S
O610        C613   1.284       .  A
Ni611       O819   1.929       .  S
Ni612       O826   1.927       .  S
C617        C618   1.363       .  D
C617        H619   1.083       .  S
C618        H620   1.083       .  S
C621        C622   1.360       .  D
C621        H623   1.082       .  S
C622        H624   1.086       .  S
C625        C626   1.360       .  D
C625        H627   1.085       .  S
C626        H628   1.083       .  S
C629        C630   1.363       .  D
C629        H631   1.083       .  S
C630        H632   1.083       .  S
C633        C634   1.362       .  D
C633        H635   1.082       .  S
C634        H636   1.083       .  S
C637        C638   1.360       .  D
C637        H639   1.083       .  S
C638        H640   1.083       .  S
C641        C642   1.359       .  D
C641        H643   1.083       .  S
C642        H644   1.079       .  S
C645        C646   1.360       .  D
C645        H647   1.083       .  S
C646        H648   1.085       .  S
O649       Ni657   1.934       .  S
O649        C767   1.285       .  A
O650       Ni657   1.924       .  S
O650        C768   1.282       .  A
O651       Ni657   1.929       .  S
O651        C661   1.284       .  A
O652       Ni657   1.927       .  S
O652        C662   1.285       .  A
O653       Ni658   1.935       .  S
O653        C770   1.286       .  A
O654       Ni658   1.931       .  S
O654        C769   1.286       .  A
O655       Ni658   1.931       .  S
O655        C660   1.286   1_554  A
O656       Ni658   1.929       .  S
O656        C659   1.284       .  A
Ni657      Ni766   2.364       .  S
Ni658      Ni765   2.361   1_554  S
C659        O757   1.285   1_554  A
C659        C710   1.549       .  S
C660        O758   1.281       .  A
C660        C687   1.548       .  S
C661        O762   1.285       .  A
C661        C794   1.547       .  S
C662        O761   1.284       .  A
C662        C771   1.546       .  S
C663        C770   1.549   1_556  S
C663        C723   1.548       .  S
C663        C858   1.537       .  S
C663        C754   1.541   1_556  S
C664        C665   1.392       .  A
C664        C669   1.416       .  A
C664        C753   1.500       .  S
C665        H684   1.085       .  S
C666        C667   1.412       .  A
C666        C746   1.498       .  S
C667        C674   1.405       .  A
C668        C669   1.428       .  A
C668        C673   1.415       .  A
C669        C670   1.405       .  A
C670        C671   1.396       .  A
C670        H680   1.081       .  S
C671        C672   1.405       .  A
C671        H681   1.081       .  S
C672        C673   1.424       .  A
C672        C679   1.411       .  A
C674        C675   1.395       .  A
C674        H682   1.081       .  S
C675        C676   1.404       .  A
C675        H683   1.081       .  S
C676        C677   1.412       .  A
C677        C742   1.495       .  S
C678        C679   1.393       .  A
C678        H685   1.085       .  S
C679        C749   1.494       .  S
C686        C769   1.556   1_556  S
C686        C724   1.537   1_556  S
C686        C849   1.541       .  S
C686        C745   1.539   1_556  S
C687        C721   1.547       .  S
C687        C841   1.539       .  S
C687        C738   1.535   1_556  S
C688        C693   1.413       .  A
C688        C737   1.493       .  S
C689        C690   1.390       .  A
C689        H708   1.085       .  S
C690        C691   1.410       .  A
C690        C729   1.495       .  S
C691        C692   1.426       .  A
C691        C698   1.402       .  A
C692        C697   1.414   1_655  A
C693        C694   1.406       .  A
C694        C695   1.395       .  A
C694        H704   1.080       .  S
C695        C696   1.404       .  A
C695        H705   1.081       .  S
C696        C703   1.413       .  A
C697        C700   1.424   1_455  A
C698        C699   1.394       .  A
C698        H706   1.081       .  S
C699        C700   1.407       .  A
C699        H707   1.080       .  S
C700        C701   1.412       .  A
C701        C702   1.393   1_655  A
C701        C725   1.494       .  S
C702        H709   1.085       .  S
C703        C734   1.497       .  S
C710        C722   1.546       .  S
C710        C834   1.542   1_554  S
C710        C730   1.539       .  S
O711        C829   1.285       .  A
O712        C830   1.284       .  A
O713       Ni719   1.933       .  S
O713        C831   1.286       .  A
O714        C832   1.280       .  A
O715        C724   1.286       .  A
O716       Ni720   1.923       .  S
O716        C723   1.281   1_554  A
O717        C722   1.285       .  A
O718        C721   1.285   1_554  A
Ni719      Ni828   2.364       .  S
Ni720      Ni827   2.365   1_554  S
C721        O819   1.285       .  A
C722        O820   1.284   1_554  A
C723        O821   1.289       .  A
C724        O822   1.286   1_554  A
C725        C726   1.360       .  D
C725        H727   1.083       .  S
C726        C818   1.537       .  S
C726        H728   1.083       .  S
C729        C730   1.360       .  D
C729        H731   1.083       .  S
C730        H732   1.084       .  S
C733        C795   1.544       .  S
C733        C734   1.363       .  D
C733        H735   1.085       .  S
C734        H736   1.082       .  S
C737        C738   1.361       .  D
C737        H739   1.083       .  S
C738        H740   1.082       .  S
C741        C794   1.541       .  S
C741        C742   1.360       .  D
C741        H743   1.085       .  S
C742        H744   1.083       .  S
C745        C746   1.359       .  D
C745        H747   1.078       .  S
C746        H748   1.084       .  S
C749        C750   1.360       .  D
C749        H751   1.084       .  S
C750        C771   1.537       .  S
C750        H752   1.083       .  S
C753        C754   1.363       .  D
C753        H755   1.083       .  S
C754        H756   1.082       .  S
O757       Ni765   1.933       .  S
O758       Ni765   1.925       .  S
O759       Ni765   1.922       .  S
O759        C769   1.280   1_556  A
O760       Ni765   1.925       .  S
O760        C770   1.283   1_556  A
O761       Ni766   1.930       .  S
O762       Ni766   1.930       .  S
O763       Ni766   1.931       .  S
O763        C768   1.285       .  A
O764       Ni766   1.925       .  S
O764        C767   1.283       .  A
C767        C818   1.549       .  S
C768        C795   1.546       .  S
C771        C831   1.546       .  S
C771        C862   1.541       .  S
C772        C773   1.392       .  A
C772        C777   1.414       .  A
C772        C861   1.498       .  S
C773        H792   1.085       .  S
C774        C775   1.410       .  A
C774        C854   1.491       .  S
C775        C782   1.406       .  A
C776        C777   1.427       .  A
C776        C781   1.415       .  A
C777        C778   1.405       .  A
C778        C779   1.395       .  A
C778        H788   1.081       .  S
C779        C780   1.405       .  A
C779        H789   1.081       .  S
C780        C781   1.424       .  A
C780        C787   1.411       .  A
C782        C783   1.397       .  A
C782        H790   1.081       .  S
C783        C784   1.405       .  A
C783        H791   1.081       .  S
C784        C785   1.409       .  A
C785        C850   1.492       .  S
C786        C787   1.393       .  A
C786        H793   1.085       .  S
C787        C857   1.494       .  S
C794        C832   1.545       .  S
C794        C853   1.532       .  S
C795        C829   1.546       .  S
C795        C846   1.541       .  S
C796        C801   1.416       .  A
C796        C845   1.498       .  S
C797        C798   1.392       .  A
C797        H816   1.085       .  S
C798        C799   1.410       .  A
C798        C837   1.493       .  S
C799        C800   1.424       .  A
C799        C806   1.405       .  A
C800        C805   1.416   1_655  A
C801        C802   1.406       .  A
C802        C803   1.396       .  A
C802        H812   1.081       .  S
C803        C804   1.405       .  A
C803        H813   1.081       .  S
C804        C811   1.411       .  A
C805        C808   1.427   1_455  A
C806        C807   1.396       .  A
C806        H814   1.081       .  S
C807        C808   1.406       .  A
C807        H815   1.081       .  S
C808        C809   1.416       .  A
C809        C810   1.393   1_655  A
C809        C833   1.499       .  S
C810        H817   1.085       .  S
C811        C842   1.494       .  S
C818        C830   1.547       .  S
C818        C838   1.538       .  S
O821       Ni827   1.940       .  S
O823        C832   1.287       .  A
O824       Ni828   1.923       .  S
O824        C831   1.283       .  A
O825        C830   1.284       .  A
O826        C829   1.284       .  A
C833        C834   1.363       .  D
C833        H835   1.083       .  S
C834        H836   1.083       .  S
C837        C838   1.360       .  D
C837        H839   1.083       .  S
C838        H840   1.085       .  S
C841        C842   1.361       .  D
C841        H843   1.086       .  S
C842        H844   1.082       .  S
C845        C846   1.364       .  D
C845        H847   1.084       .  S
C846        H848   1.083       .  S
C849        C850   1.359       .  D
C849        H851   1.084       .  S
C850        H852   1.083       .  S
C853        C854   1.358       .  D
C853        H855   1.084       .  S
C854        H856   1.084       .  S
C857        C858   1.360       .  D
C857        H859   1.084       .  S
C858        H860   1.083       .  S
C861        C862   1.362       .  D
C861        H863   1.083       .  S
C862        H864   1.083       .  S
