geometry optimzed in LAMMPS
_audit_creation_date              2020-11-30 
_audit_creation_method            'lammps2cif' 
_symmetry_space_group_name_H-M    'P1' 
_symmetry_Int_Tables_number       1 
_symmetry_cell_setting            triclinic 
loop_ 
_symmetry_equiv_pos_as_xyz 
  x,y,z 
_cell_length_a                    56.78675589 
_cell_length_b                    56.92697453370217 
_cell_length_c                    47.70672329910167 
_cell_angle_alpha                 90.42165800189267 
_cell_angle_beta                  89.642615361818 
_cell_angle_gamma                 120.18304198057075 
loop_ 
_atom_site_label 
_atom_site_type_symbol 
_atom_site_fract_x 
_atom_site_fract_y 
_atom_site_fract_z 
_atom_site_charge 
C1          C  0.04364773  0.07022067  0.63407929     0.79400
N2          N  0.02213232  0.06917373  0.64792710    -0.78900
C3          C  0.02180828  0.06967277  0.67638018     0.81800
N4          N  0.04296232  0.07113416  0.69097087    -0.78900
C5          C  0.06487147  0.07280712  0.67740214     0.81900
N6          N  0.06496128  0.07236841  0.64895263    -0.80600
C7          C  0.04468246  0.38627797  0.64014590     0.79400
N8          N  0.02520176  0.36421646  0.65429516    -0.78900
C9          C  0.02688834  0.36192049  0.68255423     0.81800
N10         N  0.04828250  0.38186138  0.69685736    -0.78900
C11         C  0.06803611  0.40386041  0.68317591     0.81900
N12         N  0.06585812  0.40624188  0.65500166    -0.80600
C13         C  0.46621275  0.46278986  0.85535906     0.79400
N14         N  0.45459807  0.43528904  0.85568122    -0.78900
C15         C  0.47042109  0.42366111  0.85532437     0.81800
N16         N  0.49787680  0.43962747  0.85433277    -0.78900
C17         C  0.01005549  0.46593157  0.85530674     0.81900
N18         N  0.49372038  0.47834618  0.85501361    -0.80600
O19         O  0.34636931  0.05742652  0.76648272    -0.86200
O20         O  0.39981621  0.09453797  0.75494774    -0.83200
C21         C  0.40456023  0.10863490  0.77694598     0.97300
O22         O  0.40923732  0.10043130  0.79968549    -0.83300
O23         O  0.40444587  0.06437981  0.84149744    -0.85900
C24         C  0.38107760  0.05380710  0.85251165     1.01800
O25         O  0.36003105  0.04001081  0.83774988    -0.78700
O26         O  0.32792146  0.01918096  0.78951357    -0.78900
C27         C  0.32583684  0.03820563  0.77829116     1.01700
O28         O  0.35275205  0.01494824  0.74099736    -0.86200
O29         O  0.40828142  0.05106743  0.73607572    -0.83300
C30         C  0.43270060  0.06673002  0.74336335     0.97300
O31         O  0.43783512  0.08088810  0.76541571    -0.83300
O32         O  0.42703289  0.04147828  0.80493626    -0.85900
C33         C  0.41272841  0.01967320  0.81832369     1.01800
O34         O  0.38788943  0.01120338  0.82363590    -0.78700
O35         O  0.36095582  0.49377054  0.77317974    -0.78900
C36         C  0.35283994  0.99419108  0.74996480     1.01700
Cr37       Cr  0.37745394  0.05397559  0.75228055     1.93700
Cr38       Cr  0.41713215  0.07023373  0.80162733     1.93200
Cr39       Cr  0.36064270  0.01841589  0.80493362     1.39100
O40         O  0.38503314  0.04749248  0.78646223    -1.23900
O41         O  0.39636514  0.21858198  0.75954400    -0.86200
O42         O  0.34497893  0.20975288  0.76841806    -0.83200
C43         C  0.32583840  0.21057231  0.78093878     0.97300
O44         O  0.33001437  0.23204472  0.79342656    -0.83300
O45         O  0.36124613  0.23780957  0.84018903    -0.85900
C46         C  0.38112432  0.24458590  0.85632502     1.01800
O47         O  0.40503405  0.25600137  0.84619817    -0.78700
O48         O  0.40820592  0.22322478  0.80379753    -0.78900
C49         C  0.40276037  0.21004820  0.78108306     1.01700
O50         O  0.41221546  0.27263084  0.74008393    -0.86200
O51         O  0.36050747  0.26300860  0.74487820    -0.83300
C52         C  0.36205785  0.28424774  0.75559895     0.97300
O53         O  0.36686943  0.28881183  0.78135328    -0.83300
O54         O  0.39478304  0.29558718  0.82968300    -0.85900
C55         C  0.41984528  0.31049400  0.82367170     1.01800
O56         O  0.43197126  0.30101574  0.80954168    -0.78700
O57         O  0.44038302  0.27115451  0.76983808    -0.78900
C58         C  0.43622996  0.28028703  0.74736812     1.01700
Cr59       Cr  0.37913684  0.24199435  0.75600496     1.93700
Cr60       Cr  0.36495783  0.26279374  0.80958912     1.93200
Cr61       Cr  0.41874065  0.26196682  0.80603853     1.39100
O62         O  0.38757099  0.25558133  0.79049000    -1.23900
O63         O  0.22318020  0.08920117  0.76209630    -0.86200
O64         O  0.20897953  0.03519002  0.75616997    -0.83200
C65         C  0.22001661  0.03369612  0.77849816     0.97300
O66         O  0.20815205  0.03192467  0.80150463    -0.83300
O67         O  0.17585103  0.03729947  0.84214863    -0.85900
C68         C  0.18641253  0.06128721  0.85153976     1.01800
O69         O  0.19180596  0.08080195  0.83523708    -0.78700
O70         O  0.20208086  0.10770894  0.78392956    -0.78900
C71         C  0.22344284  0.10951634  0.77329848     1.01700
O72         O  0.17325085  0.07803301  0.73634729    -0.86200
O73         O  0.15574496  0.02335823  0.73745210    -0.83300
C74         C  0.14788069  0.99990517  0.74678699     0.97300
O75         O  0.16126277  0.49553378  0.76666482    -0.83300
O76         O  0.12971622  0.00900036  0.80724796    -0.85900
C77         C  0.12088123  0.02331689  0.81828001     1.01800
O78         O  0.13576264  0.04871860  0.82082730    -0.78700
O79         O  0.14505109  0.07217611  0.77013637    -0.78900
C80         C  0.15153660  0.07670929  0.74473684     1.01700
Cr81       Cr  0.18930128  0.05602797  0.75070813     1.93700
Cr82       Cr  0.16894888  0.02121341  0.80348378     1.93200
Cr83       Cr  0.16943995  0.07562749  0.80109339     1.39100
O84         O  0.17601001  0.05116127  0.78540828    -1.23900
C85         C  0.34483991  0.37866891  0.64365849     0.79400
N86         N  0.34713960  0.36016463  0.65959641    -0.78900
C87         C  0.34675863  0.36162652  0.68812307     0.81800
N88         N  0.34423065  0.38196023  0.70035358    -0.78900
C89         C  0.34154535  0.40045654  0.68478809     0.81900
N90         N  0.34182326  0.39844325  0.65638373    -0.80600
C91         C  0.19640969  0.40547058  0.30802380     0.79400
N92         N  0.17389222  0.40377726  0.31993431    -0.78900
C93         C  0.17169208  0.40395293  0.34839955     0.81800
N94         N  0.19247371  0.40618832  0.36445753    -0.78900
C95         C  0.21529444  0.40804676  0.35307201     0.81900
N96         N  0.21674579  0.40742807  0.32453702    -0.80600
C97         C  0.51371488  0.21794937  0.31051895     0.79400
N98         N  0.50801509  0.23522234  0.32515672    -0.78900
C99         C  0.50122738  0.23132406  0.35293448     0.81800
N100        N  0.50023074  0.20960880  0.36570592    -0.78900
C101        C  0.50662230  0.19268510  0.35189066     0.81900
N102        N  0.51359755  0.19702298  0.32434221    -0.80600
C103        C  0.11383893  0.28810622  0.50544758     0.79400
N104        N  0.14104086  0.30452102  0.50825041    -0.78900
C105        C  0.15706682  0.29351665  0.51174233     0.81800
N106        N  0.14591191  0.26619117  0.51195237    -0.78900
C107        C  0.11875354  0.24972526  0.50839322     0.81900
N108        N  0.10279107  0.26083138  0.50477641    -0.80600
O109        O  0.48143369  0.36006378  0.42562981    -0.86200
O110        O  0.02369755  0.41039595  0.42811606    -0.83200
C111        C  0.04486369  0.43010199  0.43852443     0.97300
O112        O  0.06329848  0.42673683  0.44934906    -0.83300
O113        O  0.04642432  0.40135008  0.50084119    -0.85900
C114        C  0.03280851  0.38301881  0.51842161     1.01800
O115        O  0.01724747  0.35887338  0.51010959    -0.78700
O116        O  0.47933751  0.35678484  0.47148166    -0.78900
C117        C  0.46966836  0.35909564  0.44856658     1.01700
O118        O  0.01628587  0.34013066  0.40527386    -0.86200
O119        O  0.05786522  0.39305509  0.40123159    -0.83300
C120        C  0.07846876  0.39224062  0.40962827     0.97300
O121        O  0.08079818  0.38814626  0.43503327    -0.83300
O122        O  0.06553876  0.36536970  0.48645194    -0.85900
C123        C  0.05302143  0.33998789  0.48263969     1.01800
O124        O  0.02925118  0.32740273  0.47305057    -0.78700
O125        O  0.98727629  0.31696360  0.43839442    -0.78900
C126        C  0.99904662  0.31753428  0.41550144     1.01700
Cr127      Cr  0.02014119  0.37512360  0.41781580     1.93700
Cr128      Cr  0.06130641  0.39365163  0.46656801     1.93200
Cr129      Cr  0.00465129  0.34199379  0.47181765     1.39100
O130        O  0.02878380  0.37054707  0.45229304    -1.23900
O131        O  0.03015678  0.03450204  0.42557741    -0.86200
O132        O  0.48794757  0.04749023  0.42458190    -0.83200
C133        C  0.47582910  0.03850497  0.44782514     0.97300
O134        O  0.48690495  0.05104033  0.47010800    -0.83300
O135        O  0.02853850  0.08448770  0.50554062    -0.85900
C136        C  0.04180941  0.07344082  0.51349515     1.01800
O137        O  0.05470734  0.06741012  0.49612621    -0.78700
O138        O  0.07065228  0.05676671  0.44493312    -0.78900
C139        C  0.05093621  0.03494925  0.43546858     1.01700
O140        O  0.06647827  0.08464532  0.39684257    -0.86200
O141        O  0.02754706  0.09918391  0.40069802    -0.83300
C142        C  0.01205600  0.10681265  0.41098402     0.97300
O143        O  0.00014038  0.09710807  0.43411522    -0.83300
O144        O  0.04341921  0.12803167  0.46842690    -0.85900
C145        C  0.06681842  0.13735561  0.47877840     1.01800
O146        O  0.07764889  0.12286504  0.48146922    -0.78700
O147        O  0.09086272  0.11275100  0.43017440    -0.78900
C148        C  0.08762760  0.10606088  0.40477396     1.01700
Cr149      Cr  0.02890075  0.06716972  0.41413781     1.93700
Cr150      Cr  0.01666110  0.08909549  0.46757010     1.93200
Cr151      Cr  0.07087274  0.08917305  0.46191764     1.39100
O152        O  0.03894232  0.08176151  0.44802097    -1.23900
O153        O  0.35863127  0.42519895  0.42867841    -0.86200
O154        O  0.37039251  0.38407556  0.43300242    -0.83200
C155        C  0.37059748  0.36423746  0.44426394     0.97300
O156        O  0.34912257  0.34495655  0.45502898    -0.83300
O157        O  0.34288345  0.36420357  0.50569284    -0.85900
C158        C  0.33887408  0.37862079  0.52297746     1.01800
O159        O  0.32765274  0.39186958  0.51527093    -0.78700
O160        O  0.35959071  0.42851019  0.47424375    -0.78900
C161        C  0.37051042  0.43787533  0.45082112     1.01700
O162        O  0.30418525  0.38577616  0.41172139    -0.86200
O163        O  0.31810320  0.34595947  0.40895999    -0.83300
C164        C  0.29685128  0.32563663  0.41851578     0.97300
O165        O  0.29148957  0.32435375  0.44424073    -0.83300
O166        O  0.28537820  0.34167497  0.49524632    -0.85900
C167        C  0.27133805  0.35294369  0.49135909     1.01800
O168        O  0.28144707  0.37622275  0.48096790    -0.78700
O169        O  0.30999091  0.41615609  0.44335233    -0.78900
C170        C  0.29870353  0.40326418  0.42095302     1.01700
Cr171      Cr  0.33695369  0.38466082  0.42317424     1.93700
Cr172      Cr  0.31788839  0.34623498  0.47376038     1.93200
Cr173      Cr  0.32034171  0.40159426  0.47707586     1.39100
O174        O  0.32502605  0.37732642  0.45814993    -1.23900
C175        C  0.19679871  0.22104955  0.30467295     0.79400
N176        N  0.21629558  0.24013051  0.32150471    -0.78900
C177        C  0.21567583  0.23705543  0.34973284     0.81800
N178        N  0.19504648  0.21402883  0.36133478    -0.78900
C179        C  0.17531280  0.19445667  0.34479972     0.81900
N180        N  0.17617273  0.19814732  0.31648453    -0.80600
C181        C  0.38129806  0.05701573  0.97482747     0.79400
N182        N  0.40109746  0.07795575  0.99015395    -0.78900
C183        C  0.40055206  0.07766373  0.01881780     0.81800
N184        N  0.37999476  0.05561733  0.03180172    -0.78900
C185        C  0.35973676  0.03512858  0.01690018     0.81900
N186        N  0.36037595  0.03621674  0.98861411    -0.80600
C187        C  0.37704003  0.25495179  0.97799584     0.79400
N188        N  0.39887216  0.25950340  0.99380922    -0.78900
C189        C  0.39960856  0.26394308  0.02206098     0.81800
N190        N  0.37778750  0.26369730  0.03413889    -0.78900
C191        C  0.35558480  0.25883236  0.01896300     0.81900
N192        N  0.35540749  0.25432511  0.99091783    -0.80600
C193        C  0.29416823  0.13940889  0.17615350     0.79400
N194        N  0.28530110  0.11241986  0.17717413    -0.78900
C195        C  0.30342936  0.10356841  0.17833633     0.81800
N196        N  0.33045267  0.12178054  0.17804617    -0.78900
C197        C  0.33943845  0.14874896  0.17679843     0.81900
N198        N  0.32131382  0.15760144  0.17533716    -0.80600
O199        O  0.04086549  0.27438495  0.09394143    -0.86200
O200        O  0.04680538  0.22953242  0.09725505    -0.83200
C201        C  0.04558420  0.20931590  0.10933871     0.97300
O202        O  0.02376981  0.19164357  0.12119473    -0.83300
O203        O  0.01834113  0.21324364  0.17074655    -0.85900
C204        C  0.01394419  0.22723444  0.18820851     1.01800
O205        O  0.00449463  0.24188545  0.17988584    -0.78700
O206        O  0.04057169  0.27719362  0.13963721    -0.78900
C207        C  0.05222071  0.28669998  0.11652495     1.01700
O208        O  0.98512622  0.23903164  0.07543804    -0.86200
O209        O  0.99362043  0.19583664  0.07320020    -0.83300
C210        C  0.47738215  0.17433141  0.08520230     0.97300
O211        O  0.47452354  0.17374617  0.11132338    -0.83300
O212        O  0.46731888  0.19361272  0.16037855    -0.85900
C213        C  0.45351510  0.20499709  0.15499413     1.01800
O214        O  0.46420893  0.22815973  0.14416859    -0.78700
O215        O  0.49526496  0.26924198  0.10829541    -0.78900
C216        C  0.48282816  0.25662286  0.08629932     1.01700
Cr217      Cr  0.01563801  0.23413891  0.08758038     1.93700
Cr218      Cr  0.50039839  0.19742660  0.14008379     1.93200
Cr219      Cr  0.50322262  0.25279751  0.14193677     1.39100
O220        O  0.00313252  0.22750402  0.12239081    -1.23900
O221        O  0.22632896  0.39575270  0.09042522    -0.86200
O222        O  0.17643172  0.38722970  0.10293620    -0.83200
C223        C  0.15679148  0.38806442  0.11382731     0.97300
O224        O  0.16085362  0.41025689  0.12446835    -0.83300
O225        O  0.19148361  0.41675154  0.17272487    -0.85900
C226        C  0.21165702  0.42105056  0.18753410     1.01800
O227        O  0.23523505  0.43180787  0.17676895    -0.78700
O228        O  0.23830644  0.40013501  0.13430732    -0.78900
C229        C  0.23184016  0.38649069  0.11185344     1.01700
O230        O  0.24114372  0.44928284  0.07116022    -0.86200
O231        O  0.18946672  0.43914002  0.07709412    -0.83300
C232        C  0.19321664  0.46163008  0.08668266     0.97300
O233        O  0.19858126  0.46700934  0.11222849    -0.83300
O234        O  0.22528670  0.47340821  0.16091556    -0.85900
C235        C  0.25033765  0.48812173  0.15525063     1.01800
O236        O  0.26242349  0.47819615  0.14170902    -0.78700
O237        O  0.26993921  0.44872883  0.10063862    -0.78900
C238        C  0.26526138  0.45688617  0.07778795     1.01700
Cr239      Cr  0.20891668  0.41892515  0.08811929     1.93700
Cr240      Cr  0.19566067  0.44098273  0.14101437     1.93200
Cr241      Cr  0.24901219  0.43905494  0.13712932     1.39100
O242        O  0.21799178  0.43312518  0.12218446    -1.23900
O243        O  0.16054201  0.21132369  0.08841749    -0.86200
O244        O  0.20537323  0.26239670  0.09540766    -0.83200
C245        C  0.22539531  0.28079392  0.10875413     0.97300
O246        O  0.24225494  0.27587976  0.12090650    -0.83300
O247        O  0.21934490  0.24587952  0.16840514    -0.85900
C248        C  0.20376328  0.22630871  0.18382382     1.01800
O249        O  0.19021413  0.20261792  0.17372476    -0.78700
O250        O  0.15504878  0.20292960  0.13359832    -0.78900
C251        C  0.14690556  0.20750213  0.11082267     1.01700
O252        O  0.19703405  0.19240533  0.06863164    -0.86200
O253        O  0.24031411  0.24469758  0.07024621    -0.83300
C254        C  0.26026367  0.24349375  0.08027804     0.97300
O255        O  0.26048464  0.23791746  0.10569574    -0.83300
O256        O  0.23949181  0.21013625  0.15438561    -0.85900
C257        C  0.22761680  0.18504011  0.14839735     1.01800
O258        O  0.20508525  0.17350756  0.13572270    -0.78700
O259        O  0.16538075  0.16755685  0.09851053    -0.78900
C260        C  0.17851141  0.16925425  0.07642150     1.01700
Cr261      Cr  0.20120558  0.22705398  0.08337191     1.93700
Cr262      Cr  0.23781691  0.24076119  0.13571804     1.93200
Cr263      Cr  0.18092953  0.18916481  0.13409812     1.39100
O264        O  0.20675909  0.21927930  0.11784453    -1.23900
C265        C  0.18464214  0.06046838  0.97347425     0.79400
N266        N  0.18630122  0.04101982  0.98839376    -0.78900
C267        C  0.18512935  0.04112832  0.01695334     0.81800
N268        N  0.18248509  0.06093903  0.03033351    -0.78900
C269        C  0.18021517  0.08020739  0.01585964     0.81900
N270        N  0.18134230  0.07953604  0.98745018    -0.80600
C271        C  0.16469318  0.11906893  0.07320553    -0.02700
C272        C  0.17313189  0.14432541  0.06003058     0.07000
C273        C  0.17918743  0.14647056  0.03115329    -0.02800
C274        C  0.18290463  0.12660938  0.01717214    -0.02800
C275        C  0.17653524  0.10183001  0.03077233     0.07100
C276        C  0.16578186  0.09783047  0.05857650    -0.03000
Br277      Br  0.15122709  0.06316548  0.07735152    -0.01600
Br278      Br  0.15077512  0.11261973  0.11122259    -0.01600
Br279      Br  0.19908521  0.13599149  0.98014007    -0.01600
Br280      Br  0.17960914  0.17548688  0.00980811    -0.01600
C281        C  0.23596567  0.32448112  0.08549678    -0.02700
C282        C  0.22911486  0.30859006  0.10991104     0.07000
C283        C  0.22366035  0.31840881  0.13484845    -0.02800
C284        C  0.22323252  0.34296169  0.13497062    -0.02800
C285        C  0.23075045  0.35952879  0.11073014     0.07100
C286        C  0.23683081  0.34977819  0.08575328    -0.03000
Br287      Br  0.24614063  0.37028686  0.05136066    -0.01600
Br288      Br  0.24555949  0.31189470  0.05198338    -0.01600
Br289      Br  0.20870867  0.35148696  0.16770130    -0.01600
Br290      Br  0.21646735  0.29821395  0.16918878    -0.01600
C291        C  0.17318863  0.47405817  0.04552923    -0.02700
C292        C  0.19191990  0.48217104  0.06802249     0.07000
C293        C  0.21033082  0.51041840  0.07209303    -0.02800
C294        C  0.21030353  0.52982342  0.05391015    -0.02800
C295        C  0.19143035  0.52169358  0.03177899     0.07100
C296        C  0.17312936  0.49366464  0.02741171    -0.03000
Br297      Br  0.14714504  0.48196148  0.99717957    -0.01600
Br298      Br  0.14587492  0.43627110  0.04065686    -0.01600
Br299      Br  0.23568238  0.06693882  0.05679153    -0.01600
Br300      Br  0.23674137  0.52361760  0.10195029    -0.01600
C301        C  0.09741045  0.18595367  0.09771581    -0.02700
C302        C  0.12080527  0.20760918  0.11020449     0.07000
C303        C  0.11905986  0.22916539  0.12272735    -0.02800
C304        C  0.09408260  0.22877199  0.12357465    -0.02800
C305        C  0.07076165  0.20747229  0.11061416     0.07100
C306        C  0.07244825  0.18588395  0.09786368    -0.03000
Br307      Br  0.04089722  0.15654817  0.08010466    -0.01600
Br308      Br  0.09972578  0.15643175  0.08041319    -0.01600
Br309      Br  0.09147233  0.25680233  0.14404311    -0.01600
Br310      Br  0.15129533  0.26025663  0.13712142    -0.01600
C311        C  0.09907656  0.31612880  0.09639668    -0.02700
C312        C  0.07864335  0.31277702  0.11563840     0.07000
C313        C  0.08343976  0.33458412  0.13367518    -0.02800
C314        C  0.10841308  0.35939399  0.13265840    -0.02800
C315        C  0.12924768  0.36275434  0.11365703     0.07100
C316        C  0.12393295  0.34088286  0.09504074    -0.03000
Br317      Br  0.14962200  0.34385215  0.06617256    -0.01600
Br318      Br  0.09409154  0.28627054  0.07249013    -0.01600
Br319      Br  0.11310969  0.38819478  0.15796770    -0.01600
Br320      Br  0.05549612  0.33118225  0.15958796    -0.01600
C321        C  0.26456757  0.15806512  0.19127077    -0.02700
C322        C  0.27472461  0.14843704  0.16987952     0.07000
C323        C  0.26666868  0.14777549  0.14190949    -0.02800
C324        C  0.25004551  0.15858198  0.13499936    -0.02800
C325        C  0.24092977  0.16951932  0.15615449     0.07100
C326        C  0.24714387  0.16805654  0.18444908    -0.03000
Br327      Br  0.23063312  0.17837976  0.21382047    -0.01600
Br328      Br  0.27488789  0.15790632  0.22967666    -0.01600
Br329      Br  0.24114520  0.15970841  0.09634449    -0.01600
Br330      Br  0.27922110  0.13285822  0.11286865    -0.01600
C331        C  0.27569204  0.05590556  0.19453107    -0.02700
C332        C  0.29371754  0.07444987  0.17483484     0.07000
C333        C  0.30009148  0.06503440  0.15022230    -0.02800
C334        C  0.28776297  0.03699257  0.14492074    -0.02800
C335        C  0.26704883  0.01811829  0.16319258     0.07100
C336        C  0.26114135  0.02797820  0.18816851    -0.03000
Br337      Br  0.22311375  0.50259722  0.20830168    -0.01600
Br338      Br  0.27221701  0.06911704  0.23083546    -0.01600
Br339      Br  0.29808357  0.02574478  0.11077818    -0.01600
Br340      Br  0.32408839  0.09060576  0.12243453    -0.01600
C341        C  0.37816387  0.17405683  0.14432125    -0.02700
C342        C  0.36849884  0.16728543  0.17201176     0.07000
C343        C  0.38686338  0.17420245  0.19436321    -0.02800
C344        C  0.41486712  0.18597313  0.18889901    -0.02800
C345        C  0.42436698  0.19139415  0.16106419     0.07100
C346        C  0.40609136  0.18604297  0.13880142    -0.03000
Br347      Br  0.41897804  0.19352121  0.10042375    -0.01600
Br348      Br  0.35324021  0.16650354  0.11376547    -0.01600
Br349      Br  0.44015675  0.19516864  0.21943334    -0.01600
Br350      Br  0.37349623  0.16847124  0.23235229    -0.01600
C351        C  0.28195189  0.22949429  0.04257614    -0.02700
C352        C  0.28401340  0.24894438  0.06236812     0.07000
C353        C  0.30950754  0.27256223  0.06671664    -0.02800
C354        C  0.33276935  0.27639920  0.05181218    -0.02800
C355        C  0.33092952  0.25610584  0.03314662     0.07100
C356        C  0.30529298  0.23260084  0.02866093    -0.03000
Br357      Br  0.30218054  0.20316731  0.00542519    -0.01600
Br358      Br  0.24730601  0.19797879  0.03486875    -0.01600
Br359      Br  0.36686717  0.30994174  0.05629616    -0.01600
Br360      Br  0.31229521  0.29989516  0.09282551    -0.01600
C361        C  0.42111900  0.26358740  0.06943116    -0.02700
C362        C  0.42315431  0.26674872  0.03959441     0.07000
C363        C  0.44787956  0.27153998  0.02666034    -0.02800
C364        C  0.46727080  0.26821623  0.04190124    -0.02800
C365        C  0.46435429  0.26371005  0.07102313     0.07100
C366        C  0.44246301  0.26390144  0.08491050    -0.03000
Br367      Br  0.44113319  0.26406299  0.12541356    -0.01600
Br368      Br  0.38920723  0.25723684  0.09062857    -0.01600
Br369      Br  0.99495136  0.26217542  0.01864198    -0.01600
Br370      Br  0.45748003  0.28508497  0.98875000    -0.01600
C371        C  0.33673782  0.50036729  0.04662681    -0.02700
C372        C  0.33260414  0.51726887  0.02846290     0.07000
C373        C  0.30611579  0.51244541  0.02381452    -0.02800
C374        C  0.28389563  0.49188775  0.03865827    -0.02800
C375        C  0.28808351  0.47599299  0.05892488     0.07100
C376        C  0.31466211  0.47964579  0.06162722    -0.03000
Br377      Br  0.32139792  0.45542625  0.08398512    -0.01600
Br378      Br  0.37120296  0.99522290  0.05152848    -0.01600
Br379      Br  0.24826287  0.48666367  0.02993419    -0.01600
Br380      Br  0.30755825  0.03800303  0.00317890    -0.01600
C381        C  0.41310511  0.10770070  0.06261676    -0.02700
C382        C  0.42063350  0.10208486  0.03595226     0.07000
C383        C  0.44725557  0.12038262  0.02584207    -0.02800
C384        C  0.46508694  0.14442909  0.04093348    -0.02800
C385        C  0.45796067  0.14952360  0.06803549     0.07100
C386        C  0.43190977  0.13010710  0.07898451    -0.03000
Br387      Br  0.42042105  0.13298372  0.11672490    -0.01600
Br388      Br  0.37630733  0.08616325  0.07730766    -0.01600
Br389      Br  0.00023207  0.16702528  0.02723868    -0.01600
Br390      Br  0.46089160  0.11202175  0.99218062    -0.01600
C391        C  0.17799996  0.22224058  0.22793227    -0.02700
C392        C  0.20293613  0.23015245  0.21444507     0.07000
C393        C  0.22647352  0.23817934  0.23065217    -0.02800
C394        C  0.22430304  0.23441280  0.25991968    -0.02800
C395        C  0.19893717  0.22513398  0.27363215     0.07100
C396        C  0.17620667  0.22069039  0.25743008    -0.03000
Br397      Br  0.14312319  0.21461129  0.27503465    -0.01600
Br398      Br  0.14664124  0.21477854  0.20569726    -0.01600
Br399      Br  0.25596632  0.23977994  0.28034377    -0.01600
Br400      Br  0.26175653  0.25359247  0.21277483    -0.01600
C401        C  0.24975178  0.25429255  0.38985160    -0.02700
C402        C  0.23686110  0.25951614  0.36737007     0.07000
C403        C  0.24505058  0.28684176  0.36102619    -0.02800
C404        C  0.26607189  0.30834746  0.37632050    -0.02800
C405        C  0.27779360  0.30307199  0.39971407     0.07100
C406        C  0.26940142  0.27586011  0.40643364    -0.03000
Br407      Br  0.28569812  0.26805904  0.43785409    -0.01600
Br408      Br  0.24235221  0.21802870  0.39725336    -0.01600
Br409      Br  0.27771472  0.34499834  0.36524698    -0.01600
Br410      Br  0.22624931  0.29548721  0.33275401    -0.01600
C411        C  0.40301464  0.48531760  0.46798896    -0.02700
C412        C  0.39702795  0.46372714  0.44916020     0.07000
C413        C  0.41691833  0.46667131  0.42925945    -0.02800
C414        C  0.44246998  0.49065196  0.42844244    -0.02800
C415        C  0.44841137  0.01350254  0.44876418     0.07100
C416        C  0.42834342  0.01105868  0.46827781    -0.03000
Br417      Br  0.43496838  0.04090964  0.49294079    -0.01600
Br418      Br  0.37536819  0.48337461  0.49341489     0.03200
Br419      Br  0.46925103  0.49263654  0.40184276    -0.01600
Br420      Br  0.41039610  0.43757800  0.40349738    -0.01600
C421        C  0.15746843  0.15149648  0.37310803    -0.02700
C422        C  0.15252090  0.16965106  0.35768241     0.07000
C423        C  0.12549104  0.16403726  0.35489632    -0.02800
C424        C  0.10380047  0.13993536  0.36583613    -0.02800
C425        C  0.10905182  0.12422743  0.38473053     0.07100
C426        C  0.13613368  0.13013345  0.38828848    -0.03000
Br427      Br  0.14396513  0.10897227  0.41402026    -0.01600
Br428      Br  0.19289098  0.15486987  0.37249644    -0.01600
Br429      Br  0.06731831  0.12861770  0.35402069    -0.01600
Br430      Br  0.11803793  0.19108061  0.34048427    -0.01600
C431        C  0.42172493  0.34081024  0.43223726    -0.02700
C432        C  0.44419651  0.36017559  0.44798139     0.07000
C433        C  0.44300928  0.38180808  0.46119356    -0.02800
C434        C  0.41910664  0.38346958  0.45950217    -0.02800
C435        C  0.39621974  0.36340610  0.44473266     0.07100
C436        C  0.39785083  0.34247632  0.43058697    -0.03000
Br437      Br  0.36801133  0.31725920  0.40727902    -0.01600
Br438      Br  0.42348789  0.31174812  0.41306631    -0.01600
Br439      Br  0.41786675  0.41333532  0.47743277    -0.01600
Br440      Br  0.47474556  0.41014114  0.48007884    -0.01600
C441        C  0.05289753  0.47277325  0.46264809    -0.02700
C442        C  0.04817860  0.45758953  0.43772884     0.07000
C443        C  0.04556912  0.46834341  0.41215129    -0.02800
C444        C  0.04665300  0.49362526  0.41163944    -0.02800
C445        C  0.05230998  0.00965924  0.43573601     0.07100
C446        C  0.05865728  0.00082040  0.46070860    -0.03000
Br447      Br  0.06799636  0.02237450  0.49455430    -0.01600
Br448      Br  0.05682389  0.45886591  0.49803171    -0.01600
Br449      Br  0.04479166  0.50876644  0.37623496    -0.01600
Br450      Br  0.04186530  0.44901578  0.37752518    -0.01600
C451        C  0.08166277  0.20180308  0.51565311    -0.02700
C452        C  0.10720679  0.22041029  0.50381678     0.07000
C453        C  0.12046590  0.21098012  0.48552931    -0.02800
C454        C  0.10769150  0.18342890  0.47830146    -0.02800
C455        C  0.08150713  0.16538220  0.48874670     0.07100
C456        C  0.06904751  0.17422995  0.50836878    -0.03000
Br457      Br  0.03536314  0.14817958  0.52637793    -0.01600
Br458      Br  0.06358645  0.21363478  0.54185407    -0.01600
Br459      Br  0.12581706  0.17100252  0.45283624    -0.01600
Br460      Br  0.15489188  0.23537937  0.46765171    -0.01600
C461        C  0.20420109  0.32120350  0.52994926    -0.02700
C462        C  0.18623929  0.31030057  0.50721882     0.07000
C463        C  0.19611342  0.31446258  0.47951834    -0.02800
C464        C  0.22412636  0.32770492  0.47461574    -0.02800
C465        C  0.24225046  0.33816853  0.49733221     0.07100
C466        C  0.23240004  0.33585456  0.52493067    -0.03000
Br467      Br  0.25724542  0.35410577  0.55535413    -0.01600
Br468      Br  0.18995045  0.31651260  0.56754183    -0.01600
Br469      Br  0.23753300  0.33126922  0.43666572    -0.01600
Br470      Br  0.17139474  0.30271907  0.44810843    -0.01600
C471        C  0.08883496  0.31048026  0.52219569    -0.02700
C472        C  0.09693052  0.29989332  0.49988658     0.07000
C473        C  0.08969841  0.30140275  0.47211361    -0.02800
C474        C  0.07489685  0.31436067  0.46656405    -0.02800
C475        C  0.06680021  0.32502089  0.48886165     0.07100
C476        C  0.07319685  0.32262544  0.51672032    -0.03000
Br477      Br  0.05995195  0.33526578  0.54722746    -0.01600
Br478      Br  0.09966269  0.30869457  0.56000418    -0.01600
Br479      Br  0.06729703  0.31903805  0.42834095    -0.01600
Br480      Br  0.10108779  0.28693264  0.44155404    -0.01600
C481        C  0.48527375  0.12530693  0.38790217    -0.02700
C482        C  0.00843797  0.12753667  0.39598250     0.07000
C483        C  0.03035548  0.15456086  0.39442242    -0.02800
C484        C  0.02776726  0.17417363  0.37910610    -0.02800
C485        C  0.50778367  0.17091492  0.36755871     0.07100
C486        C  0.48392833  0.14583639  0.37269971    -0.03000
Br487      Br  0.44939859  0.14000396  0.35939101    -0.01600
Br488      Br  0.45286920  0.09048453  0.39336724    -0.01600
Br489      Br  0.05831645  0.21074597  0.37611887    -0.01600
Br490      Br  0.06402688  0.16520800  0.41364975    -0.01600
C491        C  0.98714616  0.26703945  0.35648324    -0.02700
C492        C  0.49637674  0.25127962  0.36969358     0.07000
C493        C  0.49820053  0.25260560  0.39963404    -0.02800
C494        C  0.49565369  0.27270017  0.41472803    -0.02800
C495        C  0.99339255  0.29200661  0.40055664     0.07100
C496        C  0.98834933  0.28916361  0.37145813    -0.03000
Br497      Br  0.98190667  0.31510498  0.35213451    -0.01600
Br498      Br  0.97265519  0.26018119  0.31884044    -0.01600
Br499      Br  0.49429740  0.27126158  0.45520938    -0.01600
Br500      Br  0.50581435  0.22863657  0.42163958    -0.01600
C501        C  0.50499223  0.19779066  0.26155838    -0.02700
C502        C  0.51828081  0.22086444  0.27938372     0.07000
C503        C  0.02888138  0.24326886  0.26616620    -0.02800
C504        C  0.03033194  0.24656626  0.23670750    -0.02800
C505        C  0.01631455  0.22384255  0.21884923     0.07100
C506        C  0.50773773  0.20064608  0.23215697    -0.03000
Br507      Br  0.48990548  0.16858478  0.20861265    -0.01600
Br508      Br  0.48057958  0.16212220  0.27662966    -0.01600
Br509      Br  0.05226261  0.28220467  0.22065845    -0.01600
Br510      Br  0.05125733  0.27436155  0.28968675    -0.01600
C511        C  0.23622679  0.40854483  0.40114187    -0.02700
C512        C  0.23848403  0.41042096  0.37116285     0.07000
C513        C  0.26330429  0.41429216  0.35898309    -0.02800
C514        C  0.28329878  0.41326921  0.37563652    -0.02800
C515        C  0.27951792  0.40874834  0.40470709     0.07100
C516        C  0.25648133  0.40754829  0.41744607    -0.03000
Br517      Br  0.25183536  0.40355711  0.45759583    -0.01600
Br518      Br  0.20626478  0.40780486  0.42168426    -0.01600
Br519      Br  0.31708692  0.41946812  0.35872659    -0.01600
Br520      Br  0.27232874  0.42240533  0.31963872    -0.01600
C521        C  0.14964610  0.42319336  0.37967641    -0.02700
C522        C  0.14717359  0.40218562  0.36173855     0.07000
C523        C  0.12110903  0.37937501  0.35694693    -0.02800
C524        C  0.09800611  0.37712436  0.37069477    -0.02800
C525        C  0.10092072  0.39716104  0.39018017     0.07100
C526        C  0.12655222  0.42072366  0.39361269    -0.03000
Br527      Br  0.12946631  0.45012020  0.41659809    -0.01600
Br528      Br  0.18457800  0.45554089  0.38512566    -0.01600
Br529      Br  0.06252135  0.34643360  0.36284728    -0.01600
Br530      Br  0.11717266  0.34985749  0.33355657    -0.01600
C531        C  0.22189485  0.43298120  0.26635617    -0.02700
C532        C  0.20053208  0.40855958  0.27718334     0.07000
C533        C  0.18337754  0.38756181  0.25861753    -0.02800
C534        C  0.18636298  0.39168844  0.22932868    -0.02800
C535        C  0.20836697  0.41586821  0.21834892     0.07100
C536        C  0.22678337  0.43605857  0.23727771    -0.03000
Br537      Br  0.25876404  0.46862840  0.22429090    -0.01600
Br538      Br  0.24341628  0.46323833  0.29128445    -0.01600
Br539      Br  0.16048619  0.36370361  0.20462730    -0.01600
Br540      Br  0.15705935  0.35250927  0.27319229    -0.01600
C541        C  0.36525799  0.39914525  0.56748781    -0.02700
C542        C  0.34369602  0.37718667  0.55322692     0.07000
C543        C  0.32446105  0.35447534  0.56858080    -0.02800
C544        C  0.32438046  0.35534283  0.59801934    -0.02800
C545        C  0.34550624  0.37746393  0.61253953     0.07100
C546        C  0.36668222  0.39884033  0.59706174    -0.03000
Br547      Br  0.39806123  0.42716148  0.61617962    -0.01600
Br548      Br  0.39320456  0.42898775  0.54636555    -0.01600
Br549      Br  0.29345721  0.32757132  0.61791747    -0.01600
Br550      Br  0.29813210  0.32182456  0.54946263    -0.01600
C551        C  0.16702519  0.06520905  0.92686574    -0.02700
C552        C  0.18596948  0.06117358  0.94211983     0.07000
C553        C  0.20677626  0.05950449  0.92723856    -0.02800
C554        C  0.20793468  0.06098609  0.89757033    -0.02800
C555        C  0.18909535  0.06522059  0.88252369     0.07100
C556        C  0.16921587  0.06819386  0.89750036    -0.03000
Br557      Br  0.14418843  0.07576044  0.87792875    -0.01600
Br558      Br  0.13614554  0.06404733  0.94564542    -0.01600
Br559      Br  0.23578061  0.05795175  0.87731408    -0.01600
Br560      Br  0.23432247  0.05603158  0.94719493    -0.01600
C561        C  0.29453246  0.16245938  0.79518363    -0.02700
C562        C  0.29842856  0.18573663  0.78095999     0.07000
C563        C  0.27681861  0.18420046  0.76509243    -0.02800
C564        C  0.25239542  0.15910152  0.76183368    -0.02800
C565        C  0.24925021  0.13563825  0.77513389     0.07100
C566        C  0.27026090  0.13746889  0.79209514    -0.03000
Br567      Br  0.26533172  0.10584958  0.81203091    -0.01600
Br568      Br  0.32140596  0.16539971  0.82111514    -0.01600
Br569      Br  0.22381973  0.15646230  0.73800146    -0.01600
Br570      Br  0.28031898  0.21643136  0.74846066    -0.01600
C571        C  0.39113852  0.23490150  0.90533945    -0.02700
C572        C  0.37702518  0.24326280  0.88743905     0.07000
C573        C  0.36163167  0.25405057  0.89962350    -0.02800
C574        C  0.36314658  0.25944274  0.92870994    -0.02800
C575        C  0.37664188  0.25035362  0.94683232     0.07100
C576        C  0.38954957  0.23685076  0.93479494    -0.03000
Br577      Br  0.40398834  0.21937095  0.95804849    -0.01600
Br578      Br  0.41263644  0.22041730  0.88984371    -0.01600
Br579      Br  0.34962811  0.28261605  0.94234992    -0.01600
Br580      Br  0.33995410  0.26390518  0.87656200    -0.01600
C581        C  0.37117468  0.33222850  0.74562470    -0.02700
C582        C  0.35808698  0.30409815  0.73819378     0.07000
C583        C  0.34135516  0.29555805  0.71398667    -0.02800
C584        C  0.33555159  0.31375907  0.69985951    -0.02800
C585        C  0.35020886  0.34187315  0.70580055     0.07100
C586        C  0.36858768  0.35101295  0.72850581    -0.03000
Br587      Br  0.39174826  0.38957759  0.73541583    -0.01600
Br588      Br  0.39427374  0.34654261  0.77825999    -0.01600
Br589      Br  0.30465340  0.29909669  0.67522825    -0.01600
Br590      Br  0.32662587  0.25946130  0.69847478    -0.01600
C591        C  0.39072577  0.13963546  0.79877352    -0.02700
C592        C  0.40362249  0.13428684  0.77645636     0.07000
C593        C  0.41468753  0.15318086  0.75421841    -0.02800
C594        C  0.41430392  0.17784385  0.75551444    -0.02800
C595        C  0.40379746  0.18431863  0.77953939     0.07100
C596        C  0.39301672  0.16522992  0.80161278    -0.03000
Br597      Br  0.38200775  0.17332388  0.83675067    -0.01600
Br598      Br  0.36568318  0.11030567  0.82282753    -0.01600
Br599      Br  0.43011013  0.20337672  0.72498767    -0.01600
Br600      Br  0.42980670  0.14548130  0.72148903    -0.01600
C601        C  0.29160767  0.04891693  0.75599834    -0.02700
C602        C  0.29882279  0.03726398  0.77820831     0.07000
C603        C  0.27954872  0.02391952  0.79997358    -0.02800
C604        C  0.25340968  0.02117164  0.79891440    -0.02800
C605        C  0.24668582  0.03397693  0.77759541     0.07100
C606        C  0.26614656  0.04786170  0.75603808    -0.03000
Br607      Br  0.25896336  0.06633266  0.72620013    -0.01600
Br608      Br  0.31582578  0.06576957  0.72434407    -0.01600
Br609      Br  0.22626946  0.99762490  0.82586123    -0.01600
Br610      Br  0.28891665  0.01066872  0.83286375    -0.01600
C611        C  0.39202405  0.08016302  0.89798590    -0.02700
C612        C  0.37913701  0.05505627  0.88354355     0.07000
C613        C  0.36789957  0.03076405  0.89902253    -0.02800
C614        C  0.36987878  0.03149085  0.92850643    -0.02800
C615        C  0.38146640  0.05667995  0.94332319     0.07100
C616        C  0.39213815  0.08102766  0.92761305    -0.03000
Br617      Br  0.40575466  0.11591605  0.94586417    -0.01600
Br618      Br  0.40991781  0.11368226  0.87722369    -0.01600
Br619      Br  0.35846850  0.99739992  0.94752855    -0.01600
Br620      Br  0.35156175  0.99609439  0.87969520    -0.01600
C621        C  0.35121189  0.44959205  0.68611628    -0.02700
C622        C  0.34018393  0.42359314  0.69891639     0.07000
C623        C  0.32892838  0.42034202  0.72626642    -0.02800
C624        C  0.33181588  0.44301375  0.74153262    -0.02800
C625        C  0.34643830  0.46944400  0.73010234     0.07100
C626        C  0.35499833  0.47237005  0.70183965    -0.03000
Br627      Br  0.37178662  0.00927891  0.68599975    -0.01600
Br628      Br  0.36132773  0.45546037  0.64697220    -0.01600
Br629      Br  0.31435571  0.43742992  0.77782586    -0.01600
Br630      Br  0.30757344  0.38465161  0.74272076    -0.01600
C631        C  0.45396383  0.35988797  0.81514455    -0.02700
C632        C  0.43491263  0.33934875  0.83314053     0.07000
C633        C  0.42942964  0.34688790  0.85967375    -0.02800
C634        C  0.44071221  0.37448056  0.86695961    -0.02800
C635        C  0.45829940  0.39469777  0.84822063     0.07100
C636        C  0.46484631  0.38737984  0.82227184    -0.03000
Br637      Br  0.48705337  0.41505589  0.79515608    -0.01600
Br638      Br  0.46571119  0.35136055  0.78045774    -0.01600
Br639      Br  0.43239808  0.38468504  0.90273784    -0.01600
Br640      Br  0.40925039  0.31984007  0.88758964    -0.01600
C641        C  0.08468318  0.48696985  0.84737712    -0.02700
C642        C  0.09299541  0.01043959  0.82940618     0.07000
C643        C  0.07429227  0.01725096  0.81833665    -0.02800
C644        C  0.04725147  0.00397709  0.82785110    -0.02800
C645        C  0.03926016  0.48198863  0.84741335     0.07100
C646        C  0.05811474  0.47512543  0.85844647    -0.03000
Br647      Br  0.04816608  0.45021883  0.88947639    -0.01600
Br648      Br  0.11044917  0.47785328  0.86283145    -0.01600
Br649      Br  0.02148381  0.01080255  0.80821456    -0.01600
Br650      Br  0.08521261  0.04437311  0.78955203    -0.01600
C651        C  0.45713765  0.50154875  0.85946596    -0.02700
C652        C  0.45005693  0.47579147  0.84804614     0.07000
C653        C  0.43041066  0.46472003  0.82634902    -0.02800
C654        C  0.41741114  0.47874224  0.81721038    -0.02800
C655        C  0.42520181  0.00413602  0.82900657     0.07100
C656        C  0.44320888  0.01412570  0.85191640    -0.03000
Br657      Br  0.45065237  0.04761715  0.86996534    -0.01600
Br658      Br  0.47826629  0.01241045  0.89475550    -0.01600
Br659      Br  0.38927969  0.46222955  0.78930983    -0.01600
Br660      Br  0.42325320  0.43219930  0.80597018    -0.01600
C661        C  0.00539884  0.31920993  0.71161274    -0.02700
C662        C  0.00353777  0.34022210  0.69832206     0.07000
C663        C  0.47884656  0.34197829  0.70090438    -0.02800
C664        C  0.45675339  0.32132474  0.71569916    -0.02800
C665        C  0.45931738  0.30067011  0.72957732     0.07100
C666        C  0.48435710  0.30083883  0.72705968    -0.03000
Br667      Br  0.48991371  0.27419200  0.74606745    -0.01600
Br668      Br  0.03843213  0.31767591  0.70766479    -0.01600
Br669      Br  0.42404282  0.32370108  0.71801808    -0.01600
Br670      Br  0.47760914  0.37379596  0.68922769    -0.01600
C671        C  0.08355422  0.44712417  0.70945875    -0.02700
C672        C  0.08912390  0.42706372  0.69962200     0.07000
C673        C  0.11408788  0.42884757  0.70658634    -0.02800
C674        C  0.13433344  0.45188641  0.72115770    -0.02800
C675        C  0.12934439  0.47288544  0.72952321     0.07100
C676        C  0.10344986  0.46982286  0.72440156    -0.03000
Br677      Br  0.09414093  0.49550148  0.73977325    -0.01600
Br678      Br  0.04784998  0.44256240  0.70372050    -0.01600
Br679      Br  0.16905581  0.45491362  0.72899963    -0.01600
Br680      Br  0.11989851  0.39911735  0.69735252    -0.01600
C681        C  0.01645056  0.37992341  0.59629109    -0.02700
C682        C  0.04224881  0.38881111  0.60887575     0.07000
C683        C  0.06550658  0.39971423  0.59105559    -0.02800
C684        C  0.06267086  0.40027996  0.56157374    -0.02800
C685        C  0.03654157  0.38878887  0.54923597     0.07100
C686        C  0.01366931  0.37951498  0.56684429    -0.03000
Br687      Br  0.47871557  0.37227127  0.54827464    -0.01600
Br688      Br  0.48301988  0.37246184  0.61710711    -0.01600
Br689      Br  0.09483485  0.41566272  0.53809381    -0.01600
Br690      Br  0.10143318  0.41204120  0.60613034    -0.01600
C691        C  0.10306680  0.06264972  0.68398615    -0.02700
C692        C  0.08871770  0.07566615  0.69343135     0.07000
C693        C  0.09774503  0.09188885  0.71805867    -0.02800
C694        C  0.11943766  0.09355911  0.73382832    -0.02800
C695        C  0.13287093  0.07956469  0.72505932     0.07100
C696        C  0.12562942  0.06548990  0.69913014    -0.03000
Br697      Br  0.14566604  0.04897599  0.68423392    -0.01600
Br698      Br  0.09073474  0.03852009  0.65176919    -0.01600
Br699      Br  0.13155366  0.11625916  0.76708683    -0.01600
Br700      Br  0.08144305  0.11294209  0.73043530    -0.01600
C701        C  0.45590351  0.04453390  0.71914608    -0.02700
C702        C  0.45561277  0.06850056  0.72646563     0.07000
C703        C  0.47830676  0.09403997  0.71937673    -0.02800
C704        C  0.50011861  0.09542242  0.70376054    -0.02800
C705        C  0.99880865  0.06898455  0.69163765     0.07100
C706        C  0.97561532  0.04391760  0.69793917    -0.03000
Br707      Br  0.97292394  0.01074864  0.68399398    -0.01600
Br708      Br  0.42727374  0.00957708  0.73163647    -0.01600
Br709      Br  0.53057169  0.13018872  0.69312401    -0.01600
Br710      Br  0.48013635  0.12737883  0.73113452    -0.01600
C711        C  0.02187595  0.04888255  0.58794085    -0.02700
C712        C  0.04416456  0.06951484  0.60301694     0.07000
C713        C  0.06702266  0.08954759  0.58819286    -0.02800
C714        C  0.06675892  0.08990434  0.55872292    -0.02800
C715        C  0.04393680  0.07004141  0.54380659     0.07100
C716        C  0.02191343  0.04909564  0.55840610    -0.03000
Br717      Br  0.48272713  0.02566126  0.54180872    -0.01600
Br718      Br  0.48391197  0.02492360  0.61150718    -0.01600
Br719      Br  0.09741113  0.11855854  0.53903445    -0.01600
Br720      Br  0.09828946  0.11775282  0.60789867    -0.01600
C721        C  0.04163980  0.57018129  0.63626335     0.79400
N722        N  0.02140056  0.57086747  0.65101736    -0.78900
C723        C  0.02268451  0.57294558  0.67946806     0.81800
N724        N  0.04426848  0.57436790  0.69320914    -0.78900
C725        C  0.06478210  0.57407471  0.67866824     0.81900
N726        N  0.06311431  0.57182449  0.65033864    -0.80600
C727        C  0.04337543  0.89033129  0.63956886     0.79400
N728        N  0.02481719  0.86728373  0.65302217    -0.78900
C729        C  0.02604948  0.86480407  0.68125572     0.81800
N730        N  0.04596099  0.88554392  0.69625279    -0.78900
C731        C  0.06472246  0.90858939  0.68323948     0.81900
N732        N  0.06314315  0.91109767  0.65500544    -0.80600
C733        C  0.46661597  0.96234114  0.85577966     0.79400
N734        N  0.45505362  0.93483815  0.85612625    -0.78900
C735        C  0.47091537  0.92324858  0.85622043     0.81800
N736        N  0.49834932  0.93927195  0.85560390    -0.78900
C737        C  0.01005864  0.96785354  0.85716287     0.81900
N738        N  0.49417791  0.97801566  0.85555146    -0.80600
O739        O  0.34724615  0.55710509  0.76406805    -0.86200
O740        O  0.40008688  0.59463899  0.75310369    -0.83200
C741        C  0.40396724  0.60840011  0.77529063     0.97300
O742        O  0.40859574  0.60018415  0.79801205    -0.83300
O743        O  0.40350373  0.56400492  0.83933409    -0.85900
C744        C  0.37975410  0.55416139  0.84922082     1.01800
O745        O  0.35925748  0.54046623  0.83385026    -0.78700
O746        O  0.32840751  0.51831584  0.78579387    -0.78900
C747        C  0.32665385  0.53783560  0.77554354     1.01700
O748        O  0.35415050  0.51454682  0.73877178    -0.86200
O749        O  0.40944815  0.55142711  0.73434474    -0.83300
C750        C  0.43370088  0.56708016  0.74209542     0.97300
O751        O  0.43836623  0.58139799  0.76397810    -0.83300
O752        O  0.42721796  0.54187578  0.80311856    -0.85900
C753        C  0.41299277  0.52027688  0.81680469     1.01800
O754        O  0.38822391  0.51200258  0.82238878    -0.78700
O755        O  0.35965866  0.99381838  0.77490516    -0.78900
C756        C  0.35412867  0.49380929  0.74819762     1.01700
Cr757      Cr  0.37829896  0.55390623  0.74999615     1.93700
Cr758      Cr  0.41710698  0.57037610  0.79985482     1.93200
Cr759      Cr  0.36097986  0.51839643  0.80241118     1.39100
O760        O  0.38550246  0.54743188  0.78414736    -1.23900
O761        O  0.39447738  0.71823704  0.75862195    -0.86200
O762        O  0.34305670  0.70986442  0.76753239    -0.83200
C763        C  0.32395553  0.71095842  0.77986504     0.97300
O764        O  0.32821816  0.73262891  0.79198289    -0.83300
O765        O  0.35833263  0.73800311  0.83929711    -0.85900
C766        C  0.37781284  0.74380156  0.85565927     1.01800
O767        O  0.40182221  0.75437076  0.84587252    -0.78700
O768        O  0.40525791  0.72187082  0.80309661    -0.78900
C769        C  0.40023302  0.70910223  0.78012356     1.01700
O770        O  0.41099077  0.77272532  0.73973890    -0.86200
O771        O  0.35915218  0.76316413  0.74384444    -0.83300
C772        C  0.36125510  0.78474781  0.75421535     0.97300
O773        O  0.36598591  0.78936300  0.77998094    -0.83300
O774        O  0.39284797  0.79559391  0.82908704    -0.85900
C775        C  0.41818515  0.80989530  0.82408460     1.01800
O776        O  0.43016186  0.79998260  0.81038899    -0.78700
O777        O  0.43860705  0.77069763  0.76995264    -0.78900
C778        C  0.43488602  0.78012294  0.74738222     1.01700
Cr779      Cr  0.37751891  0.74198714  0.75527346     1.93700
Cr780      Cr  0.36311125  0.76311289  0.80850208     1.93200
Cr781      Cr  0.41631171  0.76088229  0.80595672     1.39100
O782        O  0.38563605  0.75534806  0.78991163    -1.23900
O783        O  0.22324508  0.58875265  0.75980839    -0.86200
O784        O  0.21085310  0.53512825  0.75433493    -0.83200
C785        C  0.22165812  0.53367942  0.77682768     0.97300
O786        O  0.20949166  0.53133214  0.79974651    -0.83300
O787        O  0.17587927  0.53470798  0.83993285    -0.85900
C788        C  0.18664924  0.55865922  0.84933091     1.01800
O789        O  0.19158224  0.57812063  0.83318283    -0.78700
O790        O  0.20145309  0.60589829  0.78272831    -0.78900
C791        C  0.22296960  0.60857691  0.77162054     1.01700
O792        O  0.17247725  0.57502860  0.73369630    -0.86200
O793        O  0.15722563  0.52087458  0.73513276    -0.83300
C794        C  0.15043600  0.49762661  0.74441492     0.97300
O795        O  0.15851807  0.99721173  0.76895720    -0.83300
O796        O  0.13051259  0.50585135  0.80414215    -0.85900
C797        C  0.12098554  0.51961821  0.81508270     1.01800
O798        O  0.13542698  0.54506536  0.81803670    -0.78700
O799        O  0.14498043  0.57008784  0.76808823    -0.78900
C800        C  0.15114922  0.57424318  0.74256884     1.01700
Cr801      Cr  0.18995286  0.55452931  0.74845768     1.93700
Cr802      Cr  0.17007797  0.51929419  0.80110274     1.93200
Cr803      Cr  0.16914806  0.57301865  0.79908710     1.39100
O804        O  0.17642538  0.54915340  0.78307814    -1.23900
C805        C  0.34322110  0.88010755  0.64335342     0.79400
N806        N  0.34633403  0.86186800  0.65878646    -0.78900
C807        C  0.34670985  0.86319948  0.68730028     0.81800
N808        N  0.34438954  0.88345745  0.70003534    -0.78900
C809        C  0.34128535  0.90199040  0.68498957     0.81900
N810        N  0.34053332  0.89989805  0.65652536    -0.80600
C811        C  0.19666276  0.90349032  0.30817684     0.79400
N812        N  0.17475127  0.90327448  0.31986033    -0.78900
C813        C  0.17301136  0.90463030  0.34821187     0.81800
N814        N  0.19357013  0.90678615  0.36436735    -0.78900
C815        C  0.21553047  0.90680559  0.35324502     0.81900
N816        N  0.21670224  0.90494323  0.32483735    -0.80600
C817        C  0.50454181  0.71206547  0.30812631     0.79400
N818        N  0.50020228  0.73001992  0.32311476    -0.78900
C819        C  0.49436598  0.72675522  0.35104130     0.81800
N820        N  0.49295912  0.70479324  0.36383517    -0.78900
C821        C  0.49763455  0.68681009  0.34946325     0.81900
N822        N  0.50374001  0.69070443  0.32169463    -0.80600
C823        C  0.11308339  0.78689172  0.50682446     0.79400
N824        N  0.14029976  0.80347532  0.50898192    -0.78900
C825        C  0.15653930  0.79273361  0.51234416     0.81800
N826        N  0.14557559  0.76545606  0.51319899    -0.78900
C827        C  0.11837382  0.74876073  0.51029660     0.81900
N828        N  0.10218924  0.75963140  0.50669481    -0.80600
O829        O  0.48079693  0.85985593  0.42280769    -0.86200
O830        O  0.02631406  0.91201899  0.42822096    -0.83200
C831        C  0.04744761  0.93179177  0.43844523     0.97300
O832        O  0.06586396  0.92847570  0.44940399    -0.83300
O833        O  0.04744308  0.90300786  0.50045782    -0.85900
C834        C  0.03415061  0.88469913  0.51810814     1.01800
O835        O  0.01968425  0.86028687  0.50999765    -0.78700
O836        O  0.47818664  0.85606353  0.46865341    -0.78900
C837        C  0.46888819  0.85885053  0.44567347     1.01700
O838        O  0.01896168  0.84200283  0.40528541    -0.86200
O839        O  0.06095324  0.89479151  0.40206827    -0.83300
C840        C  0.08141293  0.89395383  0.41099922     0.97300
O841        O  0.08333912  0.88974458  0.43642357    -0.83300
O842        O  0.06699683  0.86665921  0.48725815    -0.85900
C843        C  0.05499898  0.84137892  0.48240693     1.01800
O844        O  0.03149346  0.82888715  0.47210121    -0.78700
O845        O  0.98926019  0.81919349  0.43786136    -0.78900
C846        C  0.00095451  0.81953764  0.41501139     1.01700
Cr847      Cr  0.02292915  0.87697152  0.41788635     1.93700
Cr848      Cr  0.06335488  0.89530797  0.46711917     1.93200
Cr849      Cr  0.00703088  0.84366923  0.47154726     1.39100
O850        O  0.03121460  0.87225661  0.45232206    -1.23900
O851        O  0.02995105  0.53482482  0.42523282    -0.86200
O852        O  0.48754047  0.54683400  0.42324795    -0.83200
C853        C  0.47588664  0.53742316  0.44655898     0.97300
O854        O  0.48718218  0.54988315  0.46880474    -0.83300
O855        O  0.02619344  0.58311651  0.50709227    -0.85900
C856        C  0.03812894  0.57077738  0.51519308     1.01800
O857        O  0.05111841  0.56470181  0.49798035    -0.78700
O858        O  0.06906133  0.55522654  0.44751947    -0.78900
C859        C  0.04966051  0.53412920  0.43649302     1.01700
O860        O  0.06764457  0.58631683  0.39910884    -0.86200
O861        O  0.02893839  0.60115031  0.40260761    -0.83300
C862        C  0.01307683  0.60845238  0.41263119     0.97300
O863        O  0.00054005  0.59810245  0.43527834    -0.83300
O864        O  0.04343094  0.62770547  0.47070949    -0.85900
C865        C  0.06626276  0.63617517  0.48214894     1.01800
O866        O  0.07624558  0.62096952  0.48541670    -0.78700
O867        O  0.09149680  0.61204691  0.43418721    -0.78900
C868        C  0.08885455  0.60692033  0.40834569     1.01700
Cr869      Cr  0.02955147  0.56838451  0.41510006     1.93700
Cr870      Cr  0.01605320  0.58901934  0.46876784     1.93200
Cr871      Cr  0.06949180  0.58760553  0.46488374     1.39100
O872        O  0.03852461  0.58160786  0.44965456    -1.23900
O873        O  0.35824040  0.92722309  0.43004116    -0.86200
O874        O  0.37078430  0.88629281  0.43257691    -0.83200
C875        C  0.37083199  0.86597117  0.44283118     0.97300
O876        O  0.34939695  0.84650145  0.45348853    -0.83300
O877        O  0.34121383  0.86308161  0.50533464    -0.85900
C878        C  0.33695824  0.87724932  0.52279120     1.01800
O879        O  0.32616067  0.89089325  0.51520840    -0.78700
O880        O  0.35897396  0.92943659  0.47566632    -0.78900
C881        C  0.37001901  0.93939225  0.45238363     1.01700
O882        O  0.30446109  0.88777906  0.41208593    -0.86200
O883        O  0.31944407  0.84907900  0.40715781    -0.83300
C884        C  0.29809754  0.82840921  0.41582144     0.97300
O885        O  0.29203804  0.82615709  0.44140052    -0.83300
O886        O  0.28428438  0.84087902  0.49294827    -0.85900
C887        C  0.27031903  0.85228736  0.48948272     1.01800
O888        O  0.28065883  0.87601079  0.48021349    -0.78700
O889        O  0.30983145  0.91738074  0.44452407    -0.78900
C890        C  0.29876736  0.90488807  0.42196214     1.01700
Cr891      Cr  0.33735675  0.88696880  0.42308976     1.93700
Cr892      Cr  0.31749094  0.84666764  0.47208135     1.93200
Cr893      Cr  0.31963389  0.90184804  0.47751461     1.39100
O894        O  0.32499146  0.87838835  0.45782022    -1.23900
C895        C  0.19684496  0.71909956  0.30544480     0.79400
N896        N  0.21599170  0.74002871  0.32097383    -0.78900
C897        C  0.21669038  0.73873883  0.34934034     0.81800
N898        N  0.19726840  0.71607460  0.36264783    -0.78900
C899        C  0.17765200  0.69489371  0.34760044     0.81900
N900        N  0.17765694  0.69649882  0.31906058    -0.80600
C901        C  0.37651276  0.56029618  0.97066865     0.79400
N902        N  0.39619673  0.58184495  0.98525756    -0.78900
C903        C  0.39580491  0.58252992  0.01380048     0.81800
N904        N  0.37576733  0.56086700  0.02774545    -0.78900
C905        C  0.35577566  0.53954802  0.01348298     0.81900
N906        N  0.35611234  0.53969183  0.98516216    -0.80600
C907        C  0.37711683  0.75743153  0.97671469     0.79400
N908        N  0.40066091  0.76377259  0.99045880    -0.78900
C909        C  0.40384968  0.76988026  0.01844850     0.81800
N910        N  0.38262891  0.76923918  0.03234388    -0.78900
C911        C  0.35909865  0.76326433  0.01920291     0.81900
N912        N  0.35631381  0.75696802  0.99143887    -0.80600
C913        C  0.29107564  0.63668383  0.18086094     0.79400
N914        N  0.28319986  0.60998992  0.18203891    -0.78900
C915        C  0.30195820  0.60202044  0.18395523     0.81800
N916        N  0.32883771  0.62104615  0.18423553    -0.78900
C917        C  0.33691769  0.64785367  0.18258197     0.81900
N918        N  0.31797981  0.65562502  0.18060848    -0.80600
O919        O  0.04164557  0.77350602  0.09402392    -0.86200
O920        O  0.04892776  0.72929284  0.09475659    -0.83200
C921        C  0.04950228  0.71026243  0.10749873     0.97300
O922        O  0.02947460  0.69329996  0.12209410    -0.83300
O923        O  0.02333817  0.71487805  0.17152856    -0.85900
C924        C  0.01741020  0.72780405  0.18890445     1.01800
O925        O  0.00624002  0.74077545  0.18037178    -0.78700
O926        O  0.04150016  0.77689007  0.13983884    -0.78900
C927        C  0.05278331  0.78640909  0.11654129     1.01700
O928        O  0.98536249  0.73707818  0.07653620    -0.86200
O929        O  0.99450373  0.69435530  0.07352729    -0.83300
C930        C  0.47293659  0.67494926  0.08253346     0.97300
O931        O  0.46837007  0.67398715  0.10842830    -0.83300
O932        O  0.46250149  0.69444063  0.15819517    -0.85900
C933        C  0.45014780  0.70755364  0.15382008     1.01800
O934        O  0.46203407  0.73048982  0.14221077    -0.78700
O935        O  0.49618081  0.77036155  0.10559481    -0.78900
C936        C  0.48416933  0.75831200  0.08316379     1.01700
Cr937      Cr  0.01678433  0.73302907  0.08741203     1.93700
Cr938      Cr  0.49464066  0.69562648  0.13802434     1.93200
Cr939      Cr  0.50181697  0.75293252  0.14000281     1.39100
O940        O  0.00580954  0.72648869  0.12277741    -1.23900
O941        O  0.22550937  0.89566521  0.09258390    -0.86200
O942        O  0.17585285  0.88782013  0.10441160    -0.83200
C943        C  0.15632044  0.88891555  0.11525018     0.97300
O944        O  0.16069746  0.91097849  0.12656199    -0.83300
O945        O  0.19199301  0.91731932  0.17415706    -0.85900
C946        C  0.21225422  0.92134255  0.18860403     1.01800
O947        O  0.23575786  0.93275388  0.17780879    -0.78700
O948        O  0.23767560  0.90040627  0.13629668    -0.78900
C949        C  0.23119290  0.88659434  0.11407453     1.01700
O950        O  0.24127115  0.94923194  0.07218615    -0.86200
O951        O  0.18950734  0.93981746  0.07844187    -0.83300
C952        C  0.19251413  0.96192894  0.08838433     0.97300
O953        O  0.19829251  0.96744326  0.11386421    -0.83300
O954        O  0.22630839  0.97438262  0.16204855    -0.85900
C955        C  0.25125613  0.98874458  0.15541617     1.01800
O956        O  0.26285173  0.97833880  0.14188548    -0.78700
O957        O  0.26946317  0.94764483  0.10185206    -0.78900
C958        C  0.26520684  0.95597222  0.07895551     1.01700
Cr959      Cr  0.20862605  0.91924580  0.08955542     1.93700
Cr960      Cr  0.19594159  0.94167248  0.14264870     1.93200
Cr961      Cr  0.24893574  0.93922002  0.13825361     1.39100
O962        O  0.21793838  0.93358571  0.12349211    -1.23900
O963        O  0.16486452  0.71215714  0.08396619    -0.86200
O964        O  0.20691995  0.76305754  0.09625831    -0.83200
C965        C  0.22581741  0.78132296  0.11073248     0.97300
O966        O  0.24222522  0.77646930  0.12401645    -0.83300
O967        O  0.21528588  0.74309763  0.16864720    -0.85900
C968        C  0.20022133  0.72245445  0.18301545     1.01800
O969        O  0.18820320  0.69930321  0.17133230    -0.78700
O970        O  0.15625818  0.70131930  0.12841757    -0.78900
C971        C  0.14980729  0.70729445  0.10544767     1.01700
O972        O  0.20542704  0.69759873  0.06670224    -0.86200
O973        O  0.24633296  0.74972736  0.07369630    -0.83300
C974        C  0.26534894  0.74756983  0.08489684     0.97300
O975        O  0.26346874  0.74087383  0.11020956    -0.83300
O976        O  0.23889101  0.70942478  0.15596471    -0.85900
C977        C  0.22798706  0.68458661  0.14863707     1.01800
O978        O  0.20707693  0.67375617  0.13348669    -0.78700
O979        O  0.17178903  0.66958340  0.09264461    -0.78900
C980        C  0.18755070  0.67357143  0.07203675     1.01700
Cr981      Cr  0.20603034  0.72983777  0.08276288     1.93700
Cr982      Cr  0.23773513  0.74095825  0.13804694     1.93200
Cr983      Cr  0.18262683  0.68850166  0.13039116     1.39100
O984        O  0.20895713  0.71996118  0.11715148    -1.23900
C985        C  0.19116473  0.56257550  0.97080765     0.79400
N986        N  0.19155087  0.54258215  0.98601356    -0.78900
C987        C  0.19019148  0.54285416  0.01456440     0.81800
N988        N  0.18856585  0.56334966  0.02766117    -0.78900
C989        C  0.18836991  0.58346076  0.01268743     0.81900
N990        N  0.18956779  0.58283813  0.98429992    -0.80600
C991        C  0.16559149  0.62283012  0.06006111    -0.02700
C992        C  0.18593902  0.65036338  0.05472927     0.07000
C993        C  0.20633264  0.65522467  0.03411146    -0.02800
C994        C  0.20728252  0.63333673  0.02111076    -0.02800
C995        C  0.18741377  0.60628194  0.02708973     0.07100
C996        C  0.16646739  0.60115777  0.04632893    -0.03000
Br997      Br  0.13828735  0.56405043  0.05341032    -0.01600
Br998      Br  0.13559226  0.61344726  0.08564449    -0.01600
Br999      Br  0.23742822  0.64052008  0.99645764    -0.01600
Br1000     Br  0.23387576  0.69145344  0.02246497    -0.01600
C1001       C  0.22995069  0.82231820  0.08658337    -0.02700
C1002       C  0.22872065  0.80879559  0.11169136     0.07000
C1003       C  0.22831547  0.82073777  0.13752417    -0.02800
C1004       C  0.22816765  0.84545425  0.13833429    -0.02800
C1005       C  0.23056435  0.85984651  0.11315585     0.07100
C1006       C  0.23180349  0.84799455  0.08720711    -0.03000
Br1007     Br  0.23683144  0.86643026  0.05180048    -0.01600
Br1008     Br  0.22944687  0.80578422  0.05086809    -0.01600
Br1009     Br  0.22227872  0.85748825  0.17448008    -0.01600
Br1010     Br  0.22619278  0.80242128  0.17218041    -0.01600
C1011       C  0.17010275  0.97314136  0.04853010    -0.02700
C1012       C  0.18985512  0.98191859  0.07009915     0.07000
C1013       C  0.20781345  0.01031206  0.07365534    -0.02800
C1014       C  0.20736922  0.02911004  0.05492100    -0.02800
C1015       C  0.18741303  0.02040847  0.03388377     0.07100
C1016       C  0.16873160  0.99229950  0.03076636    -0.03000
Br1017     Br  0.14035910  0.98002497  0.00298800    -0.01600
Br1018     Br  0.14305350  0.93510629  0.04483620    -0.01600
Br1019     Br  0.23772809  0.56781282  0.05827344    -0.01600
Br1020     Br  0.23348371  0.02464232  0.10408281    -0.01600
C1021       C  0.10141856  0.68862669  0.08954940    -0.02700
C1022       C  0.12447290  0.70862589  0.10406151     0.07000
C1023       C  0.12278668  0.72908929  0.11919945    -0.02800
C1024       C  0.09810199  0.72921213  0.12048077    -0.02800
C1025       C  0.07487847  0.70897347  0.10648769     0.07100
C1026       C  0.07653146  0.68859515  0.09104911    -0.03000
Br1027     Br  0.04478944  0.66069682  0.07205884    -0.01600
Br1028     Br  0.10392843  0.66115552  0.06799153    -0.01600
Br1029     Br  0.09570190  0.75650662  0.14258070    -0.01600
Br1030     Br  0.15465321  0.75761854  0.13749872    -0.01600
C1031       C  0.09877044  0.81788767  0.09529113    -0.02700
C1032       C  0.07855868  0.81323282  0.11542624     0.07000
C1033       C  0.08303809  0.83449169  0.13423947    -0.02800
C1034       C  0.10789164  0.85950673  0.13385178    -0.02800
C1035       C  0.12856324  0.86391333  0.11419992     0.07100
C1036       C  0.12304452  0.84319319  0.09401232    -0.03000
Br1037     Br  0.14755367  0.84898344  0.06285125    -0.01600
Br1038     Br  0.09451601  0.78918362  0.07002808    -0.01600
Br1039     Br  0.11279824  0.88719721  0.16079963    -0.01600
Br1040     Br  0.05482124  0.83021742  0.16023763    -0.01600
C1041       C  0.26404093  0.65842774  0.19425639    -0.02700
C1042       C  0.27100309  0.64476153  0.17423696     0.07000
C1043       C  0.25961380  0.63973665  0.14721945    -0.02800
C1044       C  0.24373521  0.65110530  0.13923621    -0.02800
C1045       C  0.23982323  0.66808617  0.15821727     0.07100
C1046       C  0.24818385  0.66985230  0.18634655    -0.03000
Br1047     Br  0.23580790  0.68552079  0.21460890    -0.01600
Br1048     Br  0.27549956  0.66050873  0.23260613    -0.01600
Br1049     Br  0.22852497  0.64379702  0.10194787    -0.01600
Br1050     Br  0.26674682  0.61820050  0.12069784    -0.01600
C1051       C  0.27066747  0.55373848  0.19622831    -0.02700
C1052       C  0.29279804  0.57291282  0.18027448     0.07000
C1053       C  0.30254530  0.56422205  0.15754244    -0.02800
C1054       C  0.28930163  0.53654910  0.14991266    -0.02800
C1055       C  0.26561008  0.51718556  0.16471126     0.07100
C1056       C  0.25631618  0.52627385  0.18794714    -0.03000
Br1057     Br  0.23274833  0.00438226  0.21385226    -0.01600
Br1058     Br  0.26034632  0.56546434  0.22999806    -0.01600
Br1059     Br  0.30248174  0.52690208  0.11663276    -0.01600
Br1060     Br  0.33273634  0.59042972  0.13495191    -0.01600
C1061       C  0.37382593  0.67790821  0.14960193    -0.02700
C1062       C  0.36575627  0.66738545  0.17685926     0.07000
C1063       C  0.38549916  0.67310439  0.19748685    -0.02800
C1064       C  0.41330888  0.68715141  0.19027565    -0.02800
C1065       C  0.42138260  0.69586375  0.16244068     0.07100
C1066       C  0.40162827  0.69270273  0.14257537    -0.03000
Br1067     Br  0.41214402  0.70707916  0.10511460    -0.01600
Br1068     Br  0.34682163  0.67023873  0.12109504    -0.01600
Br1069     Br  0.44023442  0.69559230  0.21888867    -0.01600
Br1070     Br  0.37419141  0.66207695  0.23566213    -0.01600
C1071       C  0.30187892  0.73601849  0.07269017    -0.02700
C1072       C  0.28998260  0.75249113  0.06832325     0.07000
C1073       C  0.30199063  0.77348864  0.04812574    -0.02800
C1074       C  0.32495528  0.77750359  0.03246257    -0.02800
C1075       C  0.33555759  0.76001230  0.03593481     0.07100
C1076       C  0.32397344  0.73936764  0.05615421    -0.03000
Br1077     Br  0.33800048  0.71485813  0.06057155    -0.01600
Br1078     Br  0.28845431  0.70829424  0.10102992    -0.01600
Br1079     Br  0.34320839  0.80829606  0.00782387    -0.01600
Br1080     Br  0.28863692  0.79831142  0.04299913    -0.01600
C1081       C  0.43118767  0.77840992  0.06414295    -0.02700
C1082       C  0.42865532  0.77360822  0.03450696     0.07000
C1083       C  0.44938983  0.77052678  0.02102705    -0.02800
C1084       C  0.46763822  0.76591258  0.03687404    -0.02800
C1085       C  0.46761534  0.76711172  0.06649357     0.07100
C1086       C  0.45075252  0.77554547  0.07977481    -0.03000
Br1087     Br  0.45328644  0.78220913  0.11984902    -0.01600
Br1088     Br  0.40946371  0.79043889  0.08453580    -0.01600
Br1089     Br  0.99897583  0.77140460  0.02246124    -0.01600
Br1090     Br  0.45584495  0.77554213  0.98106854    -0.01600
C1091       C  0.33689518  0.99424563  0.04791216    -0.02700
C1092       C  0.33532578  0.01363902  0.03119517     0.07000
C1093       C  0.31016059  0.01246681  0.02772996    -0.02800
C1094       C  0.28704641  0.99337292  0.04270103    -0.02800
C1095       C  0.28859252  0.97419393  0.06041309     0.07100
C1096       C  0.31343724  0.97391946  0.06155976    -0.03000
Br1097     Br  0.31542276  0.94471880  0.07979865    -0.01600
Br1098     Br  0.37267773  0.50481309  0.04960584    -0.01600
Br1099     Br  0.25423154  0.99549886  0.03934695    -0.01600
Br1100     Br  0.30030983  0.53487013  0.99753845    -0.01600
C1101       C  0.40645360  0.61555461  0.05362139    -0.02700
C1102       C  0.41557477  0.60737295  0.02983422     0.07000
C1103       C  0.44332763  0.62300769  0.02193730    -0.02800
C1104       C  0.46181217  0.64559231  0.03835057    -0.02800
C1105       C  0.45318388  0.65213747  0.06382239     0.07100
C1106       C  0.42512524  0.63666473  0.07118516    -0.03000
Br1107     Br  0.41080974  0.64375156  0.10509765    -0.01600
Br1108     Br  0.36777485  0.59992319  0.06102945    -0.01600
Br1109     Br  0.99796027  0.66878178  0.02335109    -0.01600
Br1110     Br  0.45683169  0.61350128  0.98895881    -0.01600
C1111       C  0.17385042  0.71082899  0.22832161    -0.02700
C1112       C  0.19894287  0.72473638  0.21409389     0.07000
C1113       C  0.22324293  0.73837240  0.22985845    -0.02800
C1114       C  0.22260722  0.73595465  0.25934580    -0.02800
C1115       C  0.19737266  0.72120765  0.27390640     0.07100
C1116       C  0.17294724  0.70921191  0.25791059    -0.03000
Br1117     Br  0.13762892  0.69111085  0.27557746    -0.01600
Br1118     Br  0.14043819  0.69534903  0.20702196    -0.01600
Br1119     Br  0.25720537  0.75111392  0.27866989    -0.01600
Br1120     Br  0.25810305  0.75929163  0.21116299    -0.01600
C1121       C  0.25354154  0.75752015  0.38625142    -0.02700
C1122       C  0.23869471  0.76201650  0.36535150     0.07000
C1123       C  0.24590753  0.78910929  0.35901321    -0.02800
C1124       C  0.26716609  0.81106220  0.37373188    -0.02800
C1125       C  0.27998507  0.80618301  0.39639773     0.07100
C1126       C  0.27340944  0.77934859  0.40221087    -0.03000
Br1127     Br  0.29274108  0.77261753  0.43138278    -0.01600
Br1128     Br  0.24871883  0.72197167  0.39189816    -0.01600
Br1129     Br  0.27814794  0.84768054  0.36279398    -0.01600
Br1130     Br  0.22568354  0.79663706  0.33153196    -0.01600
C1131       C  0.40268747  0.98701219  0.46938311    -0.02700
C1132       C  0.39659270  0.96523952  0.45078576     0.07000
C1133       C  0.41626924  0.96817015  0.43056791    -0.02800
C1134       C  0.44215018  0.99171106  0.43012612    -0.02800
C1135       C  0.44871142  0.51213377  0.44755696     0.07100
C1136       C  0.42880035  0.50916190  0.46752824    -0.03000
Br1137     Br  0.43587384  0.53783770  0.49408509    -0.01600
Br1138     Br  0.37525252  0.98507213  0.49508618     0.03200
Br1139     Br  0.46938781  0.99252801  0.40491709    -0.01600
Br1140     Br  0.40880165  0.94000908  0.40317150    -0.01600
C1141       C  0.15967633  0.65309777  0.37826302    -0.02700
C1142       C  0.15505274  0.67112713  0.36216645     0.07000
C1143       C  0.12822172  0.66604143  0.35946246    -0.02800
C1144       C  0.10623905  0.64202715  0.37020963    -0.02800
C1145       C  0.11097571  0.62596530  0.38919158     0.07100
C1146       C  0.13796179  0.63164098  0.39309654    -0.03000
Br1147     Br  0.14492327  0.60919845  0.41788511    -0.01600
Br1148     Br  0.19527291  0.65699228  0.37943625    -0.01600
Br1149     Br  0.07025832  0.63073738  0.35678977    -0.01600
Br1150     Br  0.12166127  0.69384498  0.34523277    -0.01600
C1151       C  0.42132756  0.84210281  0.42849743    -0.02700
C1152       C  0.44374053  0.86058818  0.44495821     0.07000
C1153       C  0.44280690  0.88199508  0.45901973    -0.02800
C1154       C  0.41927502  0.88430228  0.45747603    -0.02800
C1155       C  0.39628926  0.86483991  0.44243452     0.07100
C1156       C  0.39761663  0.84413922  0.42741038    -0.03000
Br1157     Br  0.36753300  0.81966465  0.40388904    -0.01600
Br1158     Br  0.42285774  0.81371666  0.40759337    -0.01600
Br1159     Br  0.41863475  0.91424452  0.47597158    -0.01600
Br1160     Br  0.47435214  0.90911690  0.47911567    -0.01600
C1161       C  0.05739048  0.97553005  0.46154936    -0.02700
C1162       C  0.05061076  0.95918350  0.43721723     0.07000
C1163       C  0.04551690  0.96858120  0.41192207    -0.02800
C1164       C  0.04631534  0.99367905  0.41121072    -0.02800
C1165       C  0.05017652  0.50830073  0.43674522     0.07100
C1166       C  0.05375449  0.49788746  0.46219687    -0.03000
Br1167     Br  0.05827519  0.51673982  0.49721865    -0.01600
Br1168     Br  0.06277636  0.96268100  0.49694660    -0.01600
Br1169     Br  0.04068068  0.00679650  0.37609238    -0.01600
Br1170     Br  0.03826389  0.94756050  0.37779654    -0.01600
C1171       C  0.08108528  0.70101108  0.51806930    -0.02700
C1172       C  0.10690254  0.71933627  0.50654394     0.07000
C1173       C  0.12051057  0.70943909  0.48935162    -0.02800
C1174       C  0.10790084  0.68168688  0.48306818    -0.02800
C1175       C  0.08121640  0.66405248  0.49253691     0.07100
C1176       C  0.06827963  0.67338582  0.51097938    -0.03000
Br1177     Br  0.03345476  0.64795481  0.52746230    -0.01600
Br1178     Br  0.06287219  0.71327057  0.54361061    -0.01600
Br1179     Br  0.12703110  0.66839834  0.46025007    -0.01600
Br1180     Br  0.15504656  0.73335558  0.47131580    -0.01600
C1181       C  0.20395910  0.82137472  0.52915399    -0.02700
C1182       C  0.18552437  0.80959305  0.50695805     0.07000
C1183       C  0.19470404  0.81325417  0.47900375    -0.02800
C1184       C  0.22264862  0.82660943  0.47339798    -0.02800
C1185       C  0.24126741  0.83758771  0.49570820     0.07100
C1186       C  0.23198186  0.83607766  0.52342134    -0.03000
Br1187     Br  0.25736861  0.85571093  0.55300645    -0.01600
Br1188     Br  0.19059697  0.81801663  0.56699131    -0.01600
Br1189     Br  0.23522489  0.82987123  0.43514352    -0.01600
Br1190     Br  0.16900818  0.80080974  0.44835221    -0.01600
C1191       C  0.09133326  0.81268252  0.52263679    -0.02700
C1192       C  0.09612975  0.79860141  0.50118453     0.07000
C1193       C  0.08680152  0.79774180  0.47377499    -0.02800
C1194       C  0.07326374  0.81187936  0.46760813    -0.02800
C1195       C  0.06856996  0.82620781  0.48905696     0.07100
C1196       C  0.07724208  0.82631448  0.51664691    -0.03000
Br1197     Br  0.06928845  0.84443343  0.54636223    -0.01600
Br1198     Br  0.10414026  0.81317302  0.56013706    -0.01600
Br1199     Br  0.06330768  0.81335448  0.42936283    -0.01600
Br1200     Br  0.09389997  0.77852974  0.44436824    -0.01600
C1201       C  0.48341658  0.61896433  0.37987702    -0.02700
C1202       C  0.00985211  0.62964259  0.39803771     0.07000
C1203       C  0.03243549  0.65623603  0.39570919    -0.02800
C1204       C  0.03038858  0.67609288  0.38020620    -0.02800
C1205       C  0.50052064  0.66595251  0.36505801     0.07100
C1206       C  0.48024071  0.63819308  0.36422343    -0.03000
Br1207     Br  0.44822061  0.62644453  0.34167503    -0.01600
Br1208     Br  0.45681400  0.58076005  0.37722160    -0.01600
Br1209     Br  0.06136862  0.71235768  0.37715684    -0.01600
Br1210     Br  0.06585215  0.66619434  0.41524986    -0.01600
C1211       C  0.98965675  0.76974831  0.35537814    -0.02700
C1212       C  0.49140881  0.74798237  0.36766227     0.07000
C1213       C  0.49477950  0.75044936  0.39737700    -0.02800
C1214       C  0.49251963  0.77081862  0.41225228    -0.02800
C1215       C  0.99428138  0.79385745  0.39972409     0.07100
C1216       C  0.99181107  0.79232762  0.37024885    -0.03000
Br1217     Br  0.99042223  0.82090676  0.34995733    -0.01600
Br1218     Br  0.97860149  0.76549986  0.31649367    -0.01600
Br1219     Br  0.48981988  0.76884946  0.45263066    -0.01600
Br1220     Br  0.50511222  0.72838120  0.41900459    -0.01600
C1221       C  0.49773953  0.69318823  0.25868026    -0.02700
C1222       C  0.51000143  0.71578113  0.27720196     0.07000
C1223       C  0.03132010  0.74496115  0.26678425    -0.02800
C1224       C  0.03313014  0.74787827  0.23726366    -0.02800
C1225       C  0.01983653  0.72487573  0.21963359     0.07100
C1226       C  0.50208751  0.69680137  0.22949601    -0.03000
Br1227     Br  0.48608809  0.66516310  0.20518201    -0.01600
Br1228     Br  0.47208243  0.65727396  0.27221399    -0.01600
Br1229     Br  0.05452498  0.78338967  0.22077413    -0.01600
Br1230     Br  0.05244227  0.77656853  0.29010610    -0.01600
C1231       C  0.23438835  0.90502968  0.40140475    -0.02700
C1232       C  0.23822964  0.90932300  0.37174951     0.07000
C1233       C  0.26426291  0.91627044  0.36036115    -0.02800
C1234       C  0.28449013  0.91640271  0.37742256    -0.02800
C1235       C  0.27974859  0.91045546  0.40610268     0.07100
C1236       C  0.25543164  0.90654111  0.41831626    -0.03000
Br1237     Br  0.25044918  0.90279038  0.45845384    -0.01600
Br1238     Br  0.20033910  0.89532180  0.42040197    -0.01600
Br1239     Br  0.31978879  0.92596338  0.36181174    -0.01600
Br1240     Br  0.27426279  0.92648126  0.32163641    -0.01600
C1241       C  0.15245113  0.92404518  0.38080490    -0.02700
C1242       C  0.14902644  0.90353621  0.36164659     0.07000
C1243       C  0.12285319  0.88089368  0.35726401    -0.02800
C1244       C  0.10028609  0.87878456  0.37184727    -0.02800
C1245       C  0.10392323  0.89855409  0.39200699     0.07100
C1246       C  0.13005310  0.92126609  0.39633135    -0.03000
Br1247     Br  0.13519530  0.94843384  0.42392335    -0.01600
Br1248     Br  0.18781773  0.95606344  0.38578444    -0.01600
Br1249     Br  0.06480949  0.84772347  0.36533309    -0.01600
Br1250     Br  0.11813331  0.85106352  0.33381931    -0.01600
C1251       C  0.22275540  0.93107323  0.26717446    -0.02700
C1252       C  0.20102367  0.90670220  0.27754994     0.07000
C1253       C  0.18364293  0.88615231  0.25872621    -0.02800
C1254       C  0.18677821  0.89085931  0.22955177    -0.02800
C1255       C  0.20918379  0.91504853  0.21908119     0.07100
C1256       C  0.22821751  0.93426097  0.23830802    -0.03000
Br1257     Br  0.26229115  0.96513630  0.22630896    -0.01600
Br1258     Br  0.24345348  0.96149277  0.29218359    -0.01600
Br1259     Br  0.16095120  0.86348444  0.20427694    -0.01600
Br1260     Br  0.15649688  0.85120549  0.27283705    -0.01600
C1261       C  0.36369867  0.89786481  0.56684679    -0.02700
C1262       C  0.34167350  0.87595575  0.55306064     0.07000
C1263       C  0.32137068  0.85451524  0.56901705    -0.02800
C1264       C  0.32090824  0.85689479  0.59834820    -0.02800
C1265       C  0.34302441  0.87856609  0.61230141     0.07100
C1266       C  0.36501452  0.89848648  0.59642094    -0.03000
Br1267     Br  0.39712626  0.92620656  0.61504499    -0.01600
Br1268     Br  0.39215276  0.92661913  0.54510181    -0.01600
Br1269     Br  0.28840001  0.83238541  0.61876900    -0.01600
Br1270     Br  0.29454869  0.82145570  0.55091003    -0.01600
C1271       C  0.16901331  0.56163251  0.92546954    -0.02700
C1272       C  0.19078926  0.56182818  0.93967985     0.07000
C1273       C  0.21230212  0.56247539  0.92403462    -0.02800
C1274       C  0.21154439  0.56213364  0.89436881    -0.02800
C1275       C  0.19007023  0.56272126  0.88018914     0.07100
C1276       C  0.16907338  0.56290436  0.89603502    -0.03000
Br1277     Br  0.13952735  0.56399323  0.87769427    -0.01600
Br1278     Br  0.13776031  0.55737436  0.94624720    -0.01600
Br1279     Br  0.23971257  0.56046994  0.87330081    -0.01600
Br1280     Br  0.24317535  0.56469297  0.94322137    -0.01600
C1281       C  0.29083737  0.66487211  0.79834797    -0.02700
C1282       C  0.29643688  0.68628503  0.77997056     0.07000
C1283       C  0.27660783  0.68279160  0.76014714    -0.02800
C1284       C  0.25262193  0.65728607  0.75696733    -0.02800
C1285       C  0.24833616  0.63521771  0.77379619     0.07100
C1286       C  0.26728906  0.63927666  0.79483192    -0.03000
Br1287     Br  0.26066649  0.60977866  0.81920448    -0.01600
Br1288     Br  0.31392693  0.67149928  0.83013981    -0.01600
Br1289     Br  0.22590394  0.65236055  0.72927542    -0.01600
Br1290     Br  0.28157876  0.71329554  0.73863509    -0.01600
C1291       C  0.38639498  0.73278052  0.90467902    -0.02700
C1292       C  0.37324531  0.74216880  0.88671669     0.07000
C1293       C  0.35814647  0.75330596  0.89887965    -0.02800
C1294       C  0.36002425  0.75905085  0.92791567    -0.02800
C1295       C  0.37405282  0.75051431  0.94592690     0.07100
C1296       C  0.38523268  0.73533874  0.93410502    -0.03000
Br1297     Br  0.39647089  0.71547852  0.95791788    -0.01600
Br1298     Br  0.40545971  0.71563917  0.88921543    -0.01600
Br1299     Br  0.34534838  0.78107654  0.94162998    -0.01600
Br1300     Br  0.33614461  0.76283890  0.87592039    -0.01600
C1301       C  0.37051826  0.83283092  0.74457452    -0.02700
C1302       C  0.35795568  0.80490349  0.73647406     0.07000
C1303       C  0.34270857  0.79697573  0.71119438    -0.02800
C1304       C  0.33740039  0.81537314  0.69663986    -0.02800
C1305       C  0.35041775  0.84316156  0.70433239     0.07100
C1306       C  0.36770551  0.85180157  0.72798804    -0.03000
Br1307     Br  0.38957662  0.89015108  0.73682833    -0.01600
Br1308     Br  0.39397489  0.84681377  0.77709447    -0.01600
Br1309     Br  0.31018265  0.80128353  0.66752387    -0.01600
Br1310     Br  0.32982801  0.76157979  0.69452223    -0.01600
C1311       C  0.38757889  0.63794264  0.79640978    -0.02700
C1312       C  0.40229210  0.63373717  0.77502357     0.07000
C1313       C  0.41455534  0.65348258  0.75374392    -0.02800
C1314       C  0.41358535  0.67785777  0.75508779    -0.02800
C1315       C  0.40116206  0.68323669  0.77823162     0.07100
C1316       C  0.38862888  0.66308483  0.79913549    -0.03000
Br1317     Br  0.37247149  0.66902341  0.83190746    -0.01600
Br1318     Br  0.36223636  0.60769962  0.81930685    -0.01600
Br1319     Br  0.43073780  0.70428317  0.72566775    -0.01600
Br1320     Br  0.43247627  0.64731744  0.72241601    -0.01600
C1321       C  0.29396257  0.55166133  0.75569753    -0.02700
C1322       C  0.30008790  0.53750353  0.77615853     0.07000
C1323       C  0.28025686  0.52251498  0.79698286    -0.02800
C1324       C  0.25426930  0.51996551  0.79608089    -0.02800
C1325       C  0.24835239  0.53446087  0.77608261     0.07100
C1326       C  0.26849369  0.55039843  0.75590315    -0.03000
Br1327     Br  0.26214608  0.57139599  0.72826592    -0.01600
Br1328     Br  0.31985503  0.57307606  0.72661563    -0.01600
Br1329     Br  0.22624083  0.49453313  0.82120402    -0.01600
Br1330     Br  0.28866005  0.50700714  0.82871154    -0.01600
C1331       C  0.38977343  0.58156825  0.89343930    -0.02700
C1332       C  0.37650899  0.55616791  0.87973202     0.07000
C1333       C  0.36328626  0.53218515  0.89562277    -0.02800
C1334       C  0.36401758  0.53343959  0.92510342    -0.02800
C1335       C  0.37668255  0.55906171  0.93925723     0.07100
C1336       C  0.38910754  0.58316571  0.92291225    -0.03000
Br1337     Br  0.40459684  0.61894582  0.93971856    -0.01600
Br1338     Br  0.40909748  0.61448088  0.87174617    -0.01600
Br1339     Br  0.34931725  0.49918285  0.94485785    -0.01600
Br1340     Br  0.34595749  0.49709843  0.87694615    -0.01600
C1341       C  0.35153570  0.95127882  0.68733265    -0.02700
C1342       C  0.34022103  0.92504685  0.69967493     0.07000
C1343       C  0.32866355  0.92136537  0.72694087    -0.02800
C1344       C  0.33086865  0.94368722  0.74231442    -0.02800
C1345       C  0.34539541  0.97023509  0.73132546     0.07100
C1346       C  0.35437133  0.97366689  0.70315997    -0.03000
Br1347     Br  0.37362506  0.50789317  0.68450583    -0.01600
Br1348     Br  0.36425673  0.95810437  0.64896054    -0.01600
Br1349     Br  0.31223683  0.93755911  0.77796008    -0.01600
Br1350     Br  0.30833115  0.88565441  0.74349356    -0.01600
C1351       C  0.45488557  0.85882427  0.81728058    -0.02700
C1352       C  0.43383438  0.83865380  0.83405923     0.07000
C1353       C  0.42730344  0.84653924  0.85988343    -0.02800
C1354       C  0.43949622  0.87420234  0.86734747    -0.02800
C1355       C  0.45888023  0.89415424  0.84951108     0.07100
C1356       C  0.46680397  0.88640010  0.82462916    -0.03000
Br1357     Br  0.49264646  0.91361438  0.79905439    -0.01600
Br1358     Br  0.46801545  0.84974405  0.78383299    -0.01600
Br1359     Br  0.43027376  0.88486406  0.90240762    -0.01600
Br1360     Br  0.40407899  0.81978638  0.88678510    -0.01600
C1361       C  0.08544069  0.99245198  0.85214592    -0.02700
C1362       C  0.09280182  0.50616360  0.82569311     0.07000
C1363       C  0.07458341  0.51412255  0.81567655    -0.02800
C1364       C  0.04783443  0.50188045  0.82605092    -0.02800
C1365       C  0.03919706  0.98495425  0.84998383     0.07100
C1366       C  0.05871853  0.98010118  0.86277540    -0.03000
Br1367     Br  0.04927364  0.95735373  0.89552272    -0.01600
Br1368     Br  0.11215790  0.98580704  0.86953926    -0.01600
Br1369     Br  0.02318658  0.51170197  0.80870337    -0.01600
Br1370     Br  0.08564273  0.54118454  0.78670819    -0.01600
C1371       C  0.45525394  0.99941667  0.86204289    -0.02700
C1372       C  0.45019791  0.97511247  0.84858122     0.07000
C1373       C  0.43182935  0.96502184  0.82573518    -0.02800
C1374       C  0.41855986  0.97891131  0.81690021    -0.02800
C1375       C  0.42555060  0.50493672  0.82761546     0.07100
C1376       C  0.44549280  0.51634778  0.84867864    -0.03000
Br1377     Br  0.45670259  0.55230955  0.86289792    -0.01600
Br1378     Br  0.48279715  0.51689768  0.88998798    -0.01600
Br1379     Br  0.39142356  0.96321640  0.78789935    -0.01600
Br1380     Br  0.42661140  0.93388358  0.80403100    -0.01600
C1381       C  0.00495277  0.82033906  0.70711545    -0.02700
C1382       C  0.00305550  0.84226375  0.69628219     0.07000
C1383       C  0.47958791  0.84258613  0.70217618    -0.02800
C1384       C  0.45699338  0.82211440  0.71673885    -0.02800
C1385       C  0.45840515  0.80045254  0.72980650     0.07100
C1386       C  0.48263972  0.79925075  0.72635165    -0.03000
Br1387     Br  0.48625789  0.77062146  0.74333222    -0.01600
Br1388     Br  0.03687086  0.81775817  0.69888108    -0.01600
Br1389     Br  0.42492689  0.82553282  0.71930891    -0.01600
Br1390     Br  0.47958441  0.87508590  0.69072775    -0.01600
C1391       C  0.08193678  0.95325902  0.70767852    -0.02700
C1392       C  0.08566273  0.93140746  0.70015311     0.07000
C1393       C  0.10867756  0.93077407  0.71001917    -0.02800
C1394       C  0.12916554  0.95307526  0.72515551    -0.02800
C1395       C  0.12615455  0.97571813  0.73160782     0.07100
C1396       C  0.10186536  0.97512200  0.72362317    -0.03000
Br1397     Br  0.09446800  0.00296171  0.73646529    -0.01600
Br1398     Br  0.04855821  0.95227093  0.69754733    -0.01600
Br1399     Br  0.16171726  0.95282310  0.73592537    -0.01600
Br1400     Br  0.11165914  0.89891714  0.70328645    -0.01600
C1401       C  0.01591551  0.88274868  0.59516371    -0.02700
C1402       C  0.04158619  0.89268633  0.60834347     0.07000
C1403       C  0.06525982  0.90398608  0.59119637    -0.02800
C1404       C  0.06299231  0.90369683  0.56162376    -0.02800
C1405       C  0.03705963  0.89101500  0.54873033     0.07100
C1406       C  0.01372345  0.88159911  0.56566362    -0.03000
Br1407     Br  0.47745611  0.86690874  0.54909811    -0.01600
Br1408     Br  0.48388227  0.86984481  0.61774593    -0.01600
Br1409     Br  0.09567061  0.91957417  0.53888905    -0.01600
Br1410     Br  0.10098791  0.91802031  0.60751427    -0.01600
C1411       C  0.09955982  0.55937671  0.68505576    -0.02700
C1412       C  0.08875807  0.57600831  0.69342227     0.07000
C1413       C  0.10148453  0.59489897  0.71554432    -0.02800
C1414       C  0.12280586  0.59518539  0.73080930    -0.02800
C1415       C  0.13264989  0.57766336  0.72327159     0.07100
C1416       C  0.12216959  0.56116357  0.69910283    -0.03000
Br1417     Br  0.13819876  0.54052106  0.68491327    -0.01600
Br1418     Br  0.08234907  0.53220512  0.65588110    -0.01600
Br1419     Br  0.13957448  0.62066532  0.76138707    -0.01600
Br1420     Br  0.09110224  0.62165624  0.72424957    -0.01600
C1421       C  0.45586008  0.54436426  0.71690936    -0.02700
C1422       C  0.45675930  0.56859845  0.72568985     0.07000
C1423       C  0.48022294  0.59392032  0.71962513    -0.02800
C1424       C  0.50133507  0.59490712  0.70304957    -0.02800
C1425       C  0.99996243  0.57197772  0.69561189     0.07100
C1426       C  0.97777656  0.54669149  0.70339275    -0.03000
Br1427     Br  0.97753974  0.51374982  0.69292898    -0.01600
Br1428     Br  0.42747398  0.50953913  0.73020550    -0.01600
Br1429     Br  0.53262638  0.62946209  0.69336316    -0.01600
Br1430     Br  0.48436958  0.62743042  0.73449145    -0.01600
C1431       C  0.01653332  0.55014357  0.59070160    -0.02700
C1432       C  0.04088466  0.56827772  0.60504317     0.07000
C1433       C  0.06488245  0.58450130  0.58924432    -0.02800
C1434       C  0.06425772  0.58316316  0.55977780    -0.02800
C1435       C  0.03952554  0.56679458  0.54561507     0.07100
C1436       C  0.01579677  0.54988616  0.56109738    -0.03000
Br1437     Br  0.48843971  0.52242215  0.53988789    -0.01600
Br1438     Br  0.48930112  0.52284683  0.60957010    -0.01600
Br1439     Br  0.09739526  0.60498056  0.53878442    -0.01600
Br1440     Br  0.09859182  0.61059083  0.60722292    -0.01600
C1441       C  0.54156890  0.06971978  0.63688256     0.79400
N1442       N  0.52137130  0.07041328  0.65164919    -0.78900
C1443       C  0.52273513  0.07262769  0.68006467     0.81800
N1444       N  0.54443641  0.07433248  0.69380621    -0.78900
C1445       C  0.56490944  0.07401492  0.67922880     0.81900
N1446       N  0.56311818  0.07148233  0.65091703    -0.80600
C1447       C  0.54252574  0.38879450  0.63951237     0.79400
N1448       N  0.52394310  0.36582057  0.65315764    -0.78900
C1449       C  0.52563103  0.36338264  0.68141258     0.81800
N1450       N  0.54586009  0.38409842  0.69611819    -0.78900
C1451       C  0.56444823  0.40703611  0.68287449     0.81900
N1452       N  0.56251100  0.40948303  0.65473867    -0.80600
C1453       C  0.96672371  0.46227791  0.85633843     0.79400
N1454       N  0.95482882  0.43475340  0.85690438    -0.78900
C1455       C  0.97036325  0.42281060  0.85672192     0.81800
N1456       N  0.99783844  0.43849258  0.85553178    -0.78900
C1457       C  0.50971386  0.46703038  0.85441776     0.81900
N1458       N  0.99430839  0.47760522  0.85584354    -0.80600
O1459       O  0.84726045  0.05683250  0.76413763    -0.86200
O1460       O  0.90029007  0.09438523  0.75256435    -0.83200
C1461       C  0.90471778  0.10834205  0.77469921     0.97300
O1462       O  0.90954068  0.10010762  0.79731096    -0.83300
O1463       O  0.90374391  0.06392565  0.83890088    -0.85900
C1464       C  0.87998781  0.05395008  0.84885858     1.01800
O1465       O  0.85943462  0.04008516  0.83358330    -0.78700
O1466       O  0.82851660  0.01784024  0.78545378    -0.78900
C1467       C  0.82662151  0.03734270  0.77537370     1.01700
O1468       O  0.85399096  0.01416822  0.73871025    -0.86200
O1469       O  0.90920004  0.05089226  0.73369853    -0.83300
C1470       C  0.93357729  0.06607907  0.74135933     0.97300
O1471       O  0.93868097  0.08021641  0.76347147    -0.83300
O1472       O  0.92730818  0.04108909  0.80332812    -0.85900
C1473       C  0.91293938  0.01963155  0.81720098     1.01800
O1474       O  0.88815229  0.01148841  0.82241596    -0.78700
O1475       O  0.86069284  0.49456729  0.77409265    -0.78900
C1476       C  0.85419605  0.99348733  0.74796550     1.01700
Cr1477     Cr  0.87829126  0.05356767  0.74976672     1.93700
Cr1478     Cr  0.91747993  0.06985270  0.79945933     1.93200
Cr1479     Cr  0.86116645  0.01802732  0.80213453     1.39100
O1480       O  0.88572767  0.04707469  0.78386477    -1.23900
O1481       O  0.89423289  0.21787188  0.75849090    -0.86200
O1482       O  0.84297024  0.21000248  0.76666022    -0.83200
C1483       C  0.82384940  0.21103280  0.77896212     0.97300
O1484       O  0.82801082  0.23259505  0.79121380    -0.83300
O1485       O  0.85801658  0.23792852  0.83877929    -0.85900
C1486       C  0.87756045  0.24399417  0.85516708     1.01800
O1487       O  0.90156252  0.25467064  0.84537405    -0.78700
O1488       O  0.90520722  0.22187188  0.80296311    -0.78900
C1489       C  0.90028696  0.20898835  0.78004342     1.01700
O1490       O  0.91109875  0.27240354  0.73931697    -0.86200
O1491       O  0.85956738  0.26359038  0.74295424    -0.83300
C1492       C  0.86125417  0.28494592  0.75358821     0.97300
O1493       O  0.86567650  0.28926323  0.77942343    -0.83300
O1494       O  0.89241586  0.29542083  0.82856257    -0.85900
C1495       C  0.91768654  0.30988882  0.82337543     1.01800
O1496       O  0.92984389  0.30014868  0.80965345    -0.78700
O1497       O  0.93849686  0.27045205  0.76976466    -0.78900
C1498       C  0.93491015  0.27971406  0.74705015     1.01700
Cr1499     Cr  0.87752873  0.24195046  0.75470215     1.93700
Cr1500     Cr  0.86280910  0.26299121  0.80788571     1.93200
Cr1501     Cr  0.91611213  0.26094021  0.80556266     1.39100
O1502       O  0.88544774  0.25528200  0.78936964    -1.23900
O1503       O  0.72342274  0.08846778  0.75990797    -0.86200
O1504       O  0.71048538  0.03469059  0.75440544    -0.83200
C1505       C  0.72126437  0.03310892  0.77688227     0.97300
O1506       O  0.70901605  0.03073009  0.79976785    -0.83300
O1507       O  0.67560949  0.03468107  0.83996351    -0.85900
C1508       C  0.68661191  0.05863586  0.84942219     1.01800
O1509       O  0.69196087  0.07821473  0.83327576    -0.78700
O1510       O  0.70197963  0.10602091  0.78278083    -0.78900
C1511       C  0.72334074  0.10844422  0.77157595     1.01700
O1512       O  0.67282164  0.07543580  0.73390990    -0.86200
O1513       O  0.65691098  0.02112216  0.73512699    -0.83300
C1514       C  0.64976507  0.99775162  0.74428162     0.97300
O1515       O  0.65918449  0.49673250  0.76559829    -0.83300
O1516       O  0.63022011  0.00640296  0.80411428    -0.85900
C1517       C  0.62102716  0.02041697  0.81516544     1.01800
O1518       O  0.63574776  0.04581402  0.81819021    -0.78700
O1519       O  0.64547852  0.07087825  0.76833553    -0.78900
C1520       C  0.65164021  0.07495486  0.74281426     1.01700
Cr1521     Cr  0.68991523  0.05451089  0.74855100     1.93700
Cr1522     Cr  0.66965448  0.01924824  0.80109216     1.93200
Cr1523     Cr  0.66956364  0.07343004  0.79922830     1.39100
O1524       O  0.67641826  0.04927281  0.78315548    -1.23900
C1525       C  0.84508527  0.38176430  0.64302737     0.79400
N1526       N  0.84753586  0.36315476  0.65856006    -0.78900
C1527       C  0.84753291  0.36435170  0.68708982     0.81800
N1528       N  0.84540236  0.38477181  0.69971268    -0.78900
C1529       C  0.84295577  0.40362920  0.68452416     0.81900
N1530       N  0.84260357  0.40170549  0.65608570    -0.80600
C1531       C  0.69564704  0.40343146  0.30960585     0.79400
N1532       N  0.67358382  0.40244565  0.32166276    -0.78900
C1533       C  0.67156645  0.40237702  0.35014461     0.81800
N1534       N  0.69215059  0.40388655  0.36589694    -0.78900
C1535       C  0.71436764  0.40483727  0.35423774     0.81900
N1536       N  0.71566624  0.40442388  0.32575076    -0.80600
C1537       C  0.00751645  0.21407197  0.30929126     0.79400
N1538       N  0.00371237  0.23220590  0.32458724    -0.78900
C1539       C  0.99817092  0.22879352  0.35257462     0.81800
N1540       N  0.99649683  0.20661390  0.36513286    -0.78900
C1541       C  0.00079165  0.18856783  0.35043467     0.81900
N1542       N  0.00657712  0.19252014  0.32259720    -0.80600
C1543       C  0.61391520  0.28861089  0.50476462     0.79400
N1544       N  0.64112290  0.30510719  0.50694146    -0.78900
C1545       C  0.65736348  0.29428566  0.50945681     0.81800
N1546       N  0.64644678  0.26698340  0.50944139    -0.78900
C1547       C  0.61919967  0.25035178  0.50672515     0.81900
N1548       N  0.60297154  0.26131465  0.50394369    -0.80600
O1549       O  0.98014224  0.35848735  0.42566897    -0.86200
O1550       O  0.52462592  0.41182234  0.42829476    -0.83200
C1551       C  0.54598276  0.43175534  0.43799781     0.97300
O1552       O  0.56454288  0.42848577  0.44861786    -0.83300
O1553       O  0.54649665  0.40380626  0.50042875    -0.85900
C1554       C  0.53316955  0.38551546  0.51814368     1.01800
O1555       O  0.51840336  0.36110072  0.51015071    -0.78700
O1556       O  0.97820566  0.35516867  0.47148001    -0.78900
C1557       C  0.96840772  0.35746794  0.44864303     1.01700
O1558       O  0.51773527  0.34186668  0.40554582    -0.86200
O1559       O  0.55943625  0.39469657  0.40210152    -0.83300
C1560       C  0.57975730  0.39357983  0.41098046     0.97300
O1561       O  0.58170886  0.38948161  0.43643988    -0.83300
O1562       O  0.56622368  0.36772933  0.48798962    -0.85900
C1563       C  0.55451598  0.34247397  0.48339461     1.01800
O1564       O  0.53094964  0.32964697  0.47324617    -0.78700
O1565       O  0.48862234  0.31872735  0.43854529    -0.78900
C1566       C  0.50033087  0.31928213  0.41560673     1.01700
Cr1567     Cr  0.52144205  0.37677078  0.41802544     1.93700
Cr1568     Cr  0.56212606  0.39568230  0.46707585     1.93200
Cr1569     Cr  0.50591563  0.34381311  0.47199738     1.39100
O1570       O  0.52987910  0.37233593  0.45254582    -1.23900
O1571       O  0.52859981  0.03425450  0.42685028    -0.86200
O1572       O  0.98868414  0.04639995  0.42307579    -0.83200
C1573       C  0.97714406  0.03727674  0.44651684     0.97300
O1574       O  0.98845778  0.05017519  0.46858975    -0.83300
O1575       O  0.52632865  0.08372273  0.50797700    -0.85900
C1576       C  0.53815170  0.07122338  0.51595077     1.01800
O1577       O  0.55104639  0.06504514  0.49870376    -0.78700
O1578       O  0.56831836  0.05512146  0.44797910    -0.78900
C1579       C  0.54878589  0.03389759  0.43729902     1.01700
O1580       O  0.56628089  0.08500268  0.39989412    -0.86200
O1581       O  0.52806482  0.10050735  0.40339794    -0.83300
C1582       C  0.51279920  0.10851568  0.41348527     0.97300
O1583       O  0.50035630  0.09862325  0.43630255    -0.83300
O1584       O  0.54360393  0.12822725  0.47131646    -0.85900
C1585       C  0.56661431  0.13674325  0.48237204     1.01800
O1586       O  0.57642514  0.12138654  0.48567545    -0.78700
O1587       O  0.59070027  0.11165240  0.43420055    -0.78900
C1588       C  0.58771768  0.10576226  0.40852465     1.01700
Cr1589     Cr  0.52835265  0.06775129  0.41632603     1.93700
Cr1590     Cr  0.51586634  0.08954504  0.46981536     1.93200
Cr1591     Cr  0.56908968  0.08765994  0.46534068     1.39100
O1592       O  0.53789986  0.08157102  0.45058681    -1.23900
O1593       O  0.85987236  0.42660862  0.42844460    -0.86200
O1594       O  0.87090095  0.38481423  0.43278029    -0.83200
C1595       C  0.87032952  0.36449733  0.44386711     0.97300
O1596       O  0.84853398  0.34550634  0.45443249    -0.83300
O1597       O  0.84194015  0.36442833  0.50543191    -0.85900
C1598       C  0.83832481  0.37931457  0.52249188     1.01800
O1599       O  0.82782931  0.39312751  0.51454550    -0.78700
O1600       O  0.86073633  0.42988404  0.47403409    -0.78900
C1601       C  0.87168856  0.43922822  0.45060384     1.01700
O1602       O  0.80559400  0.38786568  0.41114304    -0.86200
O1603       O  0.81894283  0.34774164  0.40794500    -0.83300
C1604       C  0.79723712  0.32773076  0.41706864     0.97300
O1605       O  0.79141091  0.32650437  0.44267546    -0.83300
O1606       O  0.78504532  0.34324863  0.49385988    -0.85900
C1607       C  0.77151558  0.35500694  0.48982117     1.01800
O1608       O  0.78223398  0.37845912  0.47977960    -0.78700
O1609       O  0.81192672  0.41846727  0.44281144    -0.78900
C1610       C  0.80039368  0.40548490  0.42060717     1.01700
Cr1611     Cr  0.83796413  0.38621528  0.42265897     1.93700
Cr1612     Cr  0.81750655  0.34737494  0.47281916     1.93200
Cr1613     Cr  0.82132530  0.40334127  0.47644607     1.39100
O1614       O  0.82569246  0.37886436  0.45752931    -1.23900
C1615       C  0.69489990  0.21949954  0.30589178     0.79400
N1616       N  0.71377484  0.24005103  0.32207538    -0.78900
C1617       C  0.71384761  0.23824067  0.35048537     0.81800
N1618       N  0.69415641  0.21515883  0.36296693    -0.78900
C1619       C  0.67505654  0.19417296  0.34727166     0.81900
N1620       N  0.67554480  0.19648492  0.31878278    -0.80600
C1621       C  0.87821147  0.06025021  0.97037074     0.79400
N1622       N  0.89768387  0.08208650  0.98482918    -0.78900
C1623       C  0.89732871  0.08289538  0.01337828     0.81800
N1624       N  0.87758012  0.06113156  0.02745402    -0.78900
C1625       C  0.85787502  0.03951246  0.01330777     0.81900
N1626       N  0.85812856  0.03951516  0.98500546    -0.80600
C1627       C  0.87751025  0.25844444  0.97623887     0.79400
N1628       N  0.90123644  0.26539617  0.99001778    -0.78900
C1629       C  0.90407786  0.27112911  0.01811398     0.81800
N1630       N  0.88243638  0.26948851  0.03201145    -0.78900
C1631       C  0.85880172  0.26296130  0.01886793     0.81900
N1632       N  0.85630129  0.25707608  0.99101282    -0.80600
C1633       C  0.79044479  0.13627566  0.18147006     0.79400
N1634       N  0.78280220  0.10963315  0.18221367    -0.78900
C1635       C  0.80174692  0.10194029  0.18442662     0.81800
N1636       N  0.82855626  0.12114628  0.18532590    -0.78900
C1637       C  0.83636185  0.14791481  0.18424349     0.81900
N1638       N  0.81725627  0.15541614  0.18200267    -0.80600
O1639       O  0.54231994  0.27517334  0.09424896    -0.86200
O1640       O  0.55076232  0.23169819  0.09530281    -0.83200
C1641       C  0.55151728  0.21271067  0.10792822     0.97300
O1642       O  0.53149124  0.19542422  0.12226553    -0.83300
O1643       O  0.52542609  0.21671265  0.17176723    -0.85900
C1644       C  0.51957404  0.22961102  0.18924608     1.01800
O1645       O  0.50815289  0.24241490  0.18089653    -0.78700
O1646       O  0.54260854  0.27853673  0.14004137    -0.78900
C1647       C  0.55355035  0.28820029  0.11668440     1.01700
O1648       O  0.48618622  0.23772253  0.07712167    -0.86200
O1649       O  0.49643520  0.19558298  0.07396048    -0.83300
C1650       C  0.97236202  0.17561253  0.08282395     0.97300
O1651       O  0.96737526  0.17453254  0.10865002    -0.83300
O1652       O  0.96132643  0.19455109  0.15883140    -0.85900
C1653       C  0.94913143  0.20789124  0.15497359     1.01800
O1654       O  0.96098329  0.23089630  0.14354596    -0.78700
O1655       O  0.99462649  0.27061519  0.10667517    -0.78900
C1656       C  0.98292090  0.25880594  0.08401186     1.01700
Cr1657     Cr  0.51811972  0.23451908  0.08783780     1.93700
Cr1658     Cr  0.99350040  0.19597387  0.13853600     1.93200
Cr1659     Cr  0.00066712  0.25331362  0.14099073     1.39100
O1660       O  0.50730321  0.22796162  0.12324492    -1.23900
O1661       O  0.72600362  0.39612966  0.09483311    -0.86200
O1662       O  0.67643759  0.38876192  0.10633142    -0.83200
C1663       C  0.65697103  0.39029642  0.11671265     0.97300
O1664       O  0.66151367  0.41244882  0.12789502    -0.83300
O1665       O  0.69212577  0.41796199  0.17581009    -0.85900
C1666       C  0.71217199  0.42173194  0.19047778     1.01800
O1667       O  0.73574712  0.43281203  0.17997934    -0.78700
O1668       O  0.73763085  0.40038520  0.13864419    -0.78900
C1669       C  0.73132269  0.38675906  0.11630149     1.01700
O1670       O  0.74245373  0.44979328  0.07474528    -0.86200
O1671       O  0.69086286  0.44095929  0.08042658    -0.83300
C1672       C  0.69401193  0.46316103  0.09027490     0.97300
O1673       O  0.69984965  0.46873800  0.11573244    -0.83300
O1674       O  0.72698889  0.47472154  0.16434667    -0.85900
C1675       C  0.75206485  0.48889699  0.15832567     1.01800
O1676       O  0.76366980  0.47854489  0.14470043    -0.78700
O1677       O  0.77020694  0.44776628  0.10470061    -0.78900
C1678       C  0.76627964  0.45646602  0.08191966     1.01700
Cr1679     Cr  0.70950821  0.41999043  0.09169710     1.93700
Cr1680     Cr  0.69673431  0.44259507  0.14445983     1.93200
Cr1681     Cr  0.74934393  0.43934229  0.14075487     1.39100
O1682       O  0.71865846  0.43420432  0.12564343    -1.23900
O1683       O  0.66583024  0.21310181  0.08445645    -0.86200
O1684       O  0.70783860  0.26372762  0.09744177    -0.83200
C1685       C  0.72677179  0.28188852  0.11197470     0.97300
O1686       O  0.74318047  0.27690243  0.12502145    -0.83300
O1687       O  0.71557013  0.24325913  0.16926661    -0.85900
C1688       C  0.70032082  0.22254923  0.18348440     1.01800
O1689       O  0.68849865  0.19942035  0.17171615    -0.78700
O1690       O  0.65695212  0.20188768  0.12880810    -0.78900
C1691       C  0.65075870  0.20821043  0.10590969     1.01700
O1692       O  0.70625376  0.19848523  0.06697677    -0.86200
O1693       O  0.74717624  0.25040851  0.07475332    -0.83300
C1694       C  0.76604508  0.24795465  0.08584001     0.97300
O1695       O  0.76402173  0.24105412  0.11109188    -0.83300
O1696       O  0.73903428  0.20949575  0.15660475    -0.85900
C1697       C  0.72831980  0.18483176  0.14877730     1.01800
O1698       O  0.70753519  0.17412632  0.13346502    -0.78700
O1699       O  0.67245472  0.17039069  0.09270498    -0.78900
C1700       C  0.68822268  0.17445292  0.07208360     1.01700
Cr1701     Cr  0.70690957  0.23063392  0.08346685     1.93700
Cr1702     Cr  0.73824634  0.24119598  0.13884287     1.93200
Cr1703     Cr  0.68315078  0.18892342  0.13064108     1.39100
O1704       O  0.70959219  0.22043240  0.11772429    -1.23900
C1705       C  0.69105212  0.06282550  0.97081544     0.79400
N1706       N  0.69137609  0.04299249  0.98634232    -0.78900
C1707       C  0.68968868  0.04339987  0.01485356     0.81800
N1708       N  0.68783989  0.06394394  0.02756663    -0.78900
C1709       C  0.68786657  0.08400215  0.01225222     0.81900
N1710       N  0.68929165  0.08316143  0.98390959    -0.80600
C1711       C  0.66553198  0.12382438  0.05939502    -0.02700
C1712       C  0.68630917  0.15127678  0.05446443     0.07000
C1713       C  0.70662495  0.15601719  0.03379070    -0.02800
C1714       C  0.70712472  0.13402201  0.02043579    -0.02800
C1715       C  0.68698213  0.10701790  0.02628629     0.07100
C1716       C  0.66592126  0.10208919  0.04525843    -0.03000
Br1717     Br  0.63671270  0.06518151  0.05106634    -0.01600
Br1718     Br  0.63563019  0.11459839  0.08505636    -0.01600
Br1719     Br  0.73683588  0.14097848  0.99522680    -0.01600
Br1720     Br  0.73476609  0.19220768  0.02273189    -0.01600
C1721       C  0.72983021  0.32251980  0.08820638    -0.02700
C1722       C  0.72968877  0.30936032  0.11319689     0.07000
C1723       C  0.73012018  0.32154480  0.13916103    -0.02800
C1724       C  0.72918436  0.34585215  0.14021731    -0.02800
C1725       C  0.73068291  0.36000000  0.11512353     0.07100
C1726       C  0.73126810  0.34799516  0.08901078    -0.03000
Br1727     Br  0.73449711  0.36571176  0.05349887    -0.01600
Br1728     Br  0.72868423  0.30587607  0.05234608    -0.01600
Br1729     Br  0.72309729  0.35740766  0.17656282    -0.01600
Br1730     Br  0.73064074  0.30435758  0.17374245    -0.01600
C1731       C  0.67211692  0.47397954  0.04974765    -0.02700
C1732       C  0.69133419  0.48305110  0.07183933     0.07000
C1733       C  0.70880828  0.51151593  0.07557452    -0.02800
C1734       C  0.70836579  0.53013200  0.05649698    -0.02800
C1735       C  0.68953159  0.52102923  0.03421592     0.07100
C1736       C  0.67137762  0.49279661  0.03097673    -0.03000
Br1737     Br  0.64444172  0.47970920  0.00160345    -0.01600
Br1738     Br  0.64462694  0.43598882  0.04685257    -0.01600
Br1739     Br  0.73471863  0.06866518  0.06144408    -0.01600
Br1740     Br  0.73422177  0.52607329  0.10639238    -0.01600
C1741       C  0.60222967  0.18950191  0.09108630    -0.02700
C1742       C  0.62573703  0.20995600  0.10454364     0.07000
C1743       C  0.62480327  0.23125290  0.11877147    -0.02800
C1744       C  0.60045588  0.23201609  0.11979322    -0.02800
C1745       C  0.57681309  0.21139900  0.10669997     0.07100
C1746       C  0.57765850  0.19000468  0.09250794    -0.03000
Br1747     Br  0.54517249  0.16135941  0.07523275    -0.01600
Br1748     Br  0.60359831  0.16051628  0.07135876    -0.01600
Br1749     Br  0.59906374  0.26050180  0.14066501    -0.01600
Br1750     Br  0.65703998  0.25961795  0.13675380    -0.01600
C1751       C  0.59900445  0.32052368  0.09484332    -0.02700
C1752       C  0.57905321  0.31524218  0.11553351     0.07000
C1753       C  0.58372985  0.33599079  0.13518714    -0.02800
C1754       C  0.60871977  0.36084413  0.13534867    -0.02800
C1755       C  0.62908162  0.36574492  0.11516325     0.07100
C1756       C  0.62323390  0.34585563  0.09396756    -0.03000
Br1757     Br  0.64739694  0.35304838  0.06215467    -0.01600
Br1758     Br  0.59463343  0.29268054  0.06831476    -0.01600
Br1759     Br  0.61449571  0.38750411  0.16396744    -0.01600
Br1760     Br  0.55568323  0.33131672  0.16163252    -0.01600
C1761       C  0.76252081  0.15700808  0.19459455    -0.02700
C1762       C  0.77044756  0.14428145  0.17442319     0.07000
C1763       C  0.76063599  0.14074902  0.14679136    -0.02800
C1764       C  0.74538140  0.15270699  0.13854697    -0.02800
C1765       C  0.74011890  0.16833014  0.15807913     0.07100
C1766       C  0.74702749  0.16875116  0.18651524    -0.03000
Br1767     Br  0.73356672  0.18346081  0.21473198    -0.01600
Br1768     Br  0.77242005  0.15761808  0.23328624    -0.01600
Br1769     Br  0.73326737  0.14859099  0.10011916    -0.01600
Br1770     Br  0.76905613  0.12045816  0.11990950    -0.01600
C1771       C  0.77169162  0.05351074  0.19671603    -0.02700
C1772       C  0.79300166  0.07304273  0.18022503     0.07000
C1773       C  0.80215268  0.06489580  0.15658939    -0.02800
C1774       C  0.78928536  0.03727258  0.14883517    -0.02800
C1775       C  0.76638585  0.01749406  0.16428281     0.07100
C1776       C  0.75757949  0.02609020  0.18828975    -0.03000
Br1777     Br  0.73212313  0.50275908  0.21674608    -0.01600
Br1778     Br  0.76209228  0.06475987  0.23126040    -0.01600
Br1779     Br  0.80161778  0.02815035  0.11463577    -0.01600
Br1780     Br  0.83073998  0.09185587  0.13299864    -0.01600
C1781       C  0.87293439  0.17779884  0.15107792    -0.02700
C1782       C  0.86506800  0.16770950  0.17849990     0.07000
C1783       C  0.88491486  0.17423444  0.19922537    -0.02800
C1784       C  0.91268501  0.18827517  0.19184565    -0.02800
C1785       C  0.92051069  0.19633442  0.16381826     0.07100
C1786       C  0.90065451  0.19279746  0.14395595    -0.03000
Br1787     Br  0.91095728  0.20721795  0.10648772    -0.01600
Br1788     Br  0.84582401  0.16935404  0.12249733    -0.01600
Br1789     Br  0.93989028  0.19771023  0.22038848    -0.01600
Br1790     Br  0.87382513  0.16452557  0.23768574    -0.01600
C1791       C  0.80346964  0.23731877  0.07434400    -0.02700
C1792       C  0.79058787  0.25279530  0.06910913     0.07000
C1793       C  0.80135172  0.27255367  0.04752224    -0.02800
C1794       C  0.82429022  0.27662659  0.03184093    -0.02800
C1795       C  0.83523502  0.25950288  0.03562773     0.07100
C1796       C  0.82457241  0.23971794  0.05676553    -0.03000
Br1797     Br  0.83846091  0.21507415  0.06103504    -0.01600
Br1798     Br  0.79353769  0.21291050  0.10571545    -0.01600
Br1799     Br  0.84239780  0.30738984  0.00713830    -0.01600
Br1800     Br  0.78631685  0.29563694  0.04004393    -0.01600
C1801       C  0.93072627  0.27964536  0.06412616    -0.02700
C1802       C  0.92886206  0.27527973  0.03444076     0.07000
C1803       C  0.95003164  0.27273569  0.02133868    -0.02800
C1804       C  0.96795201  0.26789775  0.03751410    -0.02800
C1805       C  0.96684204  0.26801455  0.06714159     0.07100
C1806       C  0.94959400  0.27607892  0.08019071    -0.03000
Br1807     Br  0.95059148  0.28123894  0.12045046    -0.01600
Br1808     Br  0.90928104  0.29241238  0.08386063    -0.01600
Br1809     Br  0.49879257  0.27105088  0.02293783    -0.01600
Br1810     Br  0.95751223  0.27906013  0.98166081    -0.01600
C1811       C  0.83761880  0.49425734  0.04986076    -0.02700
C1812       C  0.83540158  0.51274391  0.03228670     0.07000
C1813       C  0.81034892  0.51188477  0.02966140    -0.02800
C1814       C  0.78804477  0.49402733  0.04623644    -0.02800
C1815       C  0.78978278  0.47487934  0.06376812     0.07100
C1816       C  0.81464901  0.47459649  0.06466584    -0.03000
Br1817     Br  0.81770832  0.44689444  0.08485144    -0.01600
Br1818     Br  0.87400291  0.00418302  0.04954756    -0.01600
Br1819     Br  0.75659558  0.49865437  0.04621099    -0.01600
Br1820     Br  0.80289528  0.03567786  0.99710057    -0.01600
C1821       C  0.90675464  0.11616367  0.05257892    -0.02700
C1822       C  0.91654164  0.10802201  0.02931401     0.07000
C1823       C  0.94441701  0.12380994  0.02200924    -0.02800
C1824       C  0.96247430  0.14630386  0.03878505    -0.02800
C1825       C  0.95313668  0.15282196  0.06379934     0.07100
C1826       C  0.92490540  0.13738110  0.07035414    -0.03000
Br1827     Br  0.90971617  0.14467123  0.10343000    -0.01600
Br1828     Br  0.86787448  0.10023332  0.05889961    -0.01600
Br1829     Br  0.49964260  0.16963177  0.02377196    -0.01600
Br1830     Br  0.95855838  0.11465659  0.98930327    -0.01600
C1831       C  0.67326137  0.21175552  0.22837433    -0.02700
C1832       C  0.69860163  0.22482552  0.21451891     0.07000
C1833       C  0.72268772  0.23818404  0.23064959    -0.02800
C1834       C  0.72155316  0.23615696  0.26019243    -0.02800
C1835       C  0.69606963  0.22215518  0.27437695     0.07100
C1836       C  0.67193477  0.21101197  0.25799705    -0.03000
Br1837     Br  0.63664353  0.19625850  0.27528233    -0.01600
Br1838     Br  0.64016462  0.19606232  0.20652401    -0.01600
Br1839     Br  0.75570732  0.25115281  0.28024743    -0.01600
Br1840     Br  0.75786722  0.25817438  0.21239302    -0.01600
C1841       C  0.74769185  0.25634248  0.39096867    -0.02700
C1842       C  0.73572094  0.26130190  0.36734222     0.07000
C1843       C  0.74589535  0.28870364  0.35910041    -0.02800
C1844       C  0.76758024  0.31031102  0.37385507    -0.02800
C1845       C  0.77829779  0.30518523  0.39816982     0.07100
C1846       C  0.76868685  0.27808866  0.40615907    -0.03000
Br1847     Br  0.78587787  0.27072281  0.43711511    -0.01600
Br1848     Br  0.73668367  0.22002804  0.40290544    -0.01600
Br1849     Br  0.78211094  0.34698246  0.36062347    -0.01600
Br1850     Br  0.72890944  0.29765074  0.32916867    -0.01600
C1851       C  0.90383269  0.48705077  0.46684451    -0.02700
C1852       C  0.89810521  0.46503463  0.44875754     0.07000
C1853       C  0.91795377  0.46769190  0.42893761    -0.02800
C1854       C  0.94356806  0.49152802  0.42806083    -0.02800
C1855       C  0.95010363  0.01174825  0.44777252     0.07100
C1856       C  0.92985146  0.00883825  0.46725499    -0.03000
Br1857     Br  0.93640675  0.03787852  0.49307381    -0.01600
Br1858     Br  0.87626834  0.48528296  0.49225620     0.03200
Br1859     Br  0.97079406  0.49279127  0.40252298    -0.01600
Br1860     Br  0.91117116  0.43853701  0.40315391    -0.01600
C1861       C  0.65793781  0.15182252  0.37693332    -0.02700
C1862       C  0.65273245  0.16965494  0.36116966     0.07000
C1863       C  0.62564065  0.16378129  0.35848485    -0.02800
C1864       C  0.60411629  0.13952390  0.36931544    -0.02800
C1865       C  0.60947246  0.12427615  0.38874670     0.07100
C1866       C  0.63667334  0.13047062  0.39236016    -0.03000
Br1867     Br  0.64457131  0.10903972  0.41762838    -0.01600
Br1868     Br  0.69352212  0.15553855  0.37634204    -0.01600
Br1869     Br  0.56793078  0.12682454  0.35557589    -0.01600
Br1870     Br  0.61795045  0.19079015  0.34438312    -0.01600
C1871       C  0.92078588  0.34027322  0.43133035    -0.02700
C1872       C  0.94292363  0.35865293  0.44819392     0.07000
C1873       C  0.94138666  0.37947908  0.46285010    -0.02800
C1874       C  0.91791203  0.38182976  0.46069920    -0.02800
C1875       C  0.89548031  0.36286627  0.44466776     0.07100
C1876       C  0.89702457  0.34219554  0.42987241    -0.03000
Br1877     Br  0.86700370  0.31738350  0.40646254    -0.01600
Br1878     Br  0.92269304  0.31209312  0.41044755    -0.01600
Br1879     Br  0.91649678  0.41112469  0.47975059    -0.01600
Br1880     Br  0.97195734  0.40574421  0.48475546    -0.01600
C1881       C  0.55816593  0.47655767  0.46031338    -0.02700
C1882       C  0.54932285  0.45926882  0.43659057     0.07000
C1883       C  0.54274776  0.46804739  0.41173333    -0.02800
C1884       C  0.54390441  0.49332835  0.41098582    -0.02800
C1885       C  0.54980567  0.00839068  0.43691402     0.07100
C1886       C  0.55365100  0.99782142  0.46207262    -0.03000
Br1887     Br  0.55875777  0.01665451  0.49725603    -0.01600
Br1888     Br  0.56723815  0.46536829  0.49482182    -0.01600
Br1889     Br  0.53715074  0.50589239  0.37608261    -0.01600
Br1890     Br  0.53322941  0.44606443  0.37806770    -0.01600
C1891       C  0.58257132  0.20272362  0.51667871    -0.02700
C1892       C  0.60757071  0.22080989  0.50351776     0.07000
C1893       C  0.62059131  0.21045090  0.48611399    -0.02800
C1894       C  0.60829122  0.18240644  0.48146804    -0.02800
C1895       C  0.58200606  0.16492955  0.49207227     0.07100
C1896       C  0.56968581  0.17483805  0.51065594    -0.03000
Br1897     Br  0.53579410  0.14983897  0.52899542    -0.01600
Br1898     Br  0.56589131  0.21569186  0.54335457    -0.01600
Br1899     Br  0.62746833  0.16838202  0.45987080    -0.01600
Br1900     Br  0.65369842  0.23404014  0.46569089    -0.01600
C1901       C  0.70413911  0.32347255  0.52769849    -0.02700
C1902       C  0.68642240  0.31152221  0.50495655     0.07000
C1903       C  0.69637933  0.31578709  0.47730632    -0.02800
C1904       C  0.72443354  0.32971852  0.47253781    -0.02800
C1905       C  0.74237865  0.34060424  0.49537832     0.07100
C1906       C  0.73231595  0.33857564  0.52283258    -0.03000
Br1907     Br  0.75681073  0.35772125  0.55324323    -0.01600
Br1908     Br  0.68954298  0.31973350  0.56504155    -0.01600
Br1909     Br  0.73808988  0.33362089  0.43466603    -0.01600
Br1910     Br  0.67162744  0.30352100  0.44588540    -0.01600
C1911       C  0.59118607  0.31309362  0.52209348    -0.02700
C1912       C  0.59705908  0.30058589  0.49981399     0.07000
C1913       C  0.58921206  0.30189120  0.47226840    -0.02800
C1914       C  0.57529059  0.31581042  0.46698186    -0.02800
C1915       C  0.56884285  0.32789276  0.48933325     0.07100
C1916       C  0.57679976  0.32662089  0.51689697    -0.03000
Br1917     Br  0.56783352  0.34303536  0.54749835    -0.01600
Br1918     Br  0.60331659  0.31197174  0.55951109    -0.01600
Br1919     Br  0.56724904  0.32029819  0.42885078    -0.01600
Br1920     Br  0.59906913  0.28617594  0.44156001    -0.01600
C1921       C  0.98383166  0.12040985  0.38217352    -0.02700
C1922       C  0.51039581  0.13014663  0.39878853     0.07000
C1923       C  0.53386177  0.15597478  0.39518376    -0.02800
C1924       C  0.53264091  0.17605862  0.37923950    -0.02800
C1925       C  0.00312527  0.16718727  0.36558337     0.07100
C1926       C  0.98110982  0.14024869  0.36714597    -0.03000
Br1927     Br  0.94728650  0.13060303  0.34881984    -0.01600
Br1928     Br  0.95434882  0.08324003  0.38305796    -0.01600
Br1929     Br  0.56487709  0.21118525  0.37429694    -0.01600
Br1930     Br  0.56738385  0.16474279  0.41385815    -0.01600
C1931       C  0.49033155  0.26981292  0.35608496    -0.02700
C1932       C  0.99509239  0.24966586  0.36947021     0.07000
C1933       C  0.00025644  0.25283823  0.39883840    -0.02800
C1934       C  0.99654484  0.27193288  0.41439796    -0.02800
C1935       C  0.49449426  0.29373628  0.40050638     0.07100
C1936       C  0.49081944  0.29156116  0.37117635    -0.03000
Br1937     Br  0.48518052  0.31796269  0.35163931    -0.01600
Br1938     Br  0.47911589  0.26496550  0.31724526    -0.01600
Br1939     Br  0.99540754  0.26971898  0.45474490    -0.01600
Br1940     Br  0.01568848  0.23410809  0.41855337    -0.01600
C1941       C  0.99798554  0.19460304  0.26010703    -0.02700
C1942       C  0.01179206  0.21735254  0.27819446     0.07000
C1943       C  0.53502313  0.24667957  0.26702297    -0.02800
C1944       C  0.53649731  0.24959410  0.23748480    -0.02800
C1945       C  0.52231855  0.22667023  0.21991855     0.07100
C1946       C  0.00143619  0.19767133  0.23079167    -0.03000
Br1947     Br  0.98393341  0.16568284  0.20708871    -0.01600
Br1948     Br  0.97134809  0.15943860  0.27462960    -0.01600
Br1949     Br  0.55878893  0.28488581  0.22085819    -0.01600
Br1950     Br  0.55706534  0.27803724  0.29030239    -0.01600
C1951       C  0.73557118  0.40543163  0.40175164    -0.02700
C1952       C  0.73775457  0.40752543  0.37178993     0.07000
C1953       C  0.76295689  0.41282410  0.35926360    -0.02800
C1954       C  0.78421931  0.41456624  0.37588131    -0.02800
C1955       C  0.78100733  0.41073225  0.40496505     0.07100
C1956       C  0.75748601  0.40804574  0.41796544    -0.03000
Br1957     Br  0.75490749  0.40789986  0.45835268    -0.01600
Br1958     Br  0.70257781  0.39695484  0.42221468    -0.01600
Br1959     Br  0.81905225  0.42388313  0.35914097    -0.01600
Br1960     Br  0.77027995  0.41727162  0.31928390    -0.01600
C1961       C  0.65123026  0.42178124  0.38314806    -0.02700
C1962       C  0.64768065  0.40139694  0.36372198     0.07000
C1963       C  0.62117847  0.37980930  0.35790901    -0.02800
C1964       C  0.59850361  0.37837163  0.37164484    -0.02800
C1965       C  0.60225224  0.39795835  0.39208388     0.07100
C1966       C  0.62857071  0.42001565  0.39723210    -0.03000
Br1967     Br  0.63334753  0.44814569  0.42337399    -0.01600
Br1968     Br  0.68707274  0.45228453  0.39052003    -0.01600
Br1969     Br  0.56257595  0.34878682  0.36313880    -0.01600
Br1970     Br  0.61589969  0.35049783  0.33333799    -0.01600
C1971       C  0.72254871  0.43108823  0.26898381    -0.02700
C1972       C  0.70001901  0.40715116  0.27907141     0.07000
C1973       C  0.68244626  0.38688321  0.26016500    -0.02800
C1974       C  0.68589569  0.39165061  0.23108524    -0.02800
C1975       C  0.70880583  0.41549021  0.22085115     0.07100
C1976       C  0.72817416  0.43427244  0.24015935    -0.03000
Br1977     Br  0.76298753  0.46436164  0.22839677    -0.01600
Br1978     Br  0.74477530  0.46068502  0.29438500    -0.01600
Br1979     Br  0.65992255  0.36462664  0.20563408    -0.01600
Br1980     Br  0.65510137  0.35190397  0.27394562    -0.01600
C1981       C  0.86509375  0.40015127  0.56658356    -0.02700
C1982       C  0.84301310  0.37827501  0.55278671     0.07000
C1983       C  0.82276904  0.35676626  0.56871854    -0.02800
C1984       C  0.82252227  0.35894172  0.59805367    -0.02800
C1985       C  0.84490762  0.38027405  0.61200384     0.07100
C1986       C  0.86681849  0.40028157  0.59611112    -0.03000
Br1987     Br  0.89946215  0.42726519  0.61459919    -0.01600
Br1988     Br  0.89286194  0.42975090  0.54507617    -0.01600
Br1989     Br  0.78992057  0.33472267  0.61848792    -0.01600
Br1990     Br  0.79548541  0.32398576  0.55060594    -0.01600
C1991       C  0.66835768  0.06049096  0.92557971    -0.02700
C1992       C  0.69058778  0.06166363  0.93975616     0.07000
C1993       C  0.71248737  0.06313486  0.92415393    -0.02800
C1994       C  0.71175032  0.06281080  0.89449021    -0.02800
C1995       C  0.68986659  0.06259781  0.88030846     0.07100
C1996       C  0.66845663  0.06194940  0.89617760    -0.03000
Br1997     Br  0.63865851  0.06268044  0.87805256    -0.01600
Br1998     Br  0.63655492  0.05468963  0.94642948    -0.01600
Br1999     Br  0.74055562  0.06237950  0.87344121    -0.01600
Br2000     Br  0.74374612  0.06633788  0.94342741    -0.01600
C2001       C  0.79191666  0.16447998  0.79665636    -0.02700
C2002       C  0.79653663  0.18622352  0.77924941     0.07000
C2003       C  0.77606559  0.18287609  0.76037820    -0.02800
C2004       C  0.75223562  0.15725737  0.75727230    -0.02800
C2005       C  0.74870761  0.13502674  0.77335094     0.07100
C2006       C  0.76840521  0.13886800  0.79338056    -0.03000
Br2007     Br  0.76281874  0.10910712  0.81681845    -0.01600
Br2008     Br  0.81661071  0.17058627  0.82674860    -0.01600
Br2009     Br  0.72479803  0.15231362  0.73048404    -0.01600
Br2010     Br  0.78010078  0.21356065  0.73985808    -0.01600
C2011       C  0.88694296  0.23387833  0.90415938    -0.02700
C2012       C  0.87317526  0.24259540  0.88624273     0.07000
C2013       C  0.85796728  0.25360250  0.89841451    -0.02800
C2014       C  0.85981652  0.25934840  0.92747053    -0.02800
C2015       C  0.87454827  0.25156086  0.94541780     0.07100
C2016       C  0.88632736  0.23695240  0.93355185    -0.03000
Br2017     Br  0.89944597  0.21866695  0.95729140    -0.01600
Br2018     Br  0.90627891  0.21704119  0.88864838    -0.01600
Br2019     Br  0.84400428  0.28032055  0.94129276    -0.01600
Br2020     Br  0.83626356  0.26342204  0.87531454    -0.01600
C2021       C  0.87030492  0.33313054  0.74455038    -0.02700
C2022       C  0.85787871  0.30528212  0.73612198     0.07000
C2023       C  0.84237763  0.29754743  0.71101401    -0.02800
C2024       C  0.83734608  0.31621766  0.69655943    -0.02800
C2025       C  0.85069382  0.34401575  0.70426878     0.07100
C2026       C  0.86766006  0.35232986  0.72816336    -0.03000
Br2027     Br  0.88901760  0.39053197  0.73794288    -0.01600
Br2028     Br  0.89277500  0.34666213  0.77771286    -0.01600
Br2029     Br  0.80976233  0.30252587  0.66783438    -0.01600
Br2030     Br  0.82820188  0.26177760  0.69487189    -0.01600
C2031       C  0.88850338  0.13794402  0.79610489    -0.02700
C2032       C  0.90317458  0.13382653  0.77462563     0.07000
C2033       C  0.91555426  0.15382667  0.75358292    -0.02800
C2034       C  0.91433071  0.17811602  0.75503841    -0.02800
C2035       C  0.90175920  0.18330657  0.77821467     0.07100
C2036       C  0.88971909  0.16314775  0.79920977    -0.03000
Br2037     Br  0.87512745  0.16928342  0.83303915    -0.01600
Br2038     Br  0.86284604  0.10746138  0.81851876    -0.01600
Br2039     Br  0.93164882  0.20489280  0.72594602    -0.01600
Br2040     Br  0.93405923  0.14811933  0.72252834    -0.01600
C2041       C  0.79340754  0.05034785  0.75516641    -0.02700
C2042       C  0.79985301  0.03672405  0.77593400     0.07000
C2043       C  0.78019089  0.02204922  0.79702224    -0.02800
C2044       C  0.75425631  0.01975914  0.79644331    -0.02800
C2045       C  0.74803865  0.03382351  0.77613334     0.07100
C2046       C  0.76796794  0.04921016  0.75550853    -0.03000
Br2047     Br  0.76146775  0.06975615  0.72746246    -0.01600
Br2048     Br  0.81877927  0.07053524  0.72525101    -0.01600
Br2049     Br  0.72677730  0.99540823  0.82269050    -0.01600
Br2050     Br  0.78871265  0.00629722  0.82845362    -0.01600
C2051       C  0.89005489  0.08139548  0.89306369    -0.02700
C2052       C  0.87685841  0.05597198  0.87939973     0.07000
C2053       C  0.86398977  0.03200852  0.89535389    -0.02800
C2054       C  0.86516398  0.03331241  0.92482543    -0.02800
C2055       C  0.87795478  0.05896486  0.93894770     0.07100
C2056       C  0.88986187  0.08303538  0.92255632    -0.03000
Br2057     Br  0.90522948  0.11882319  0.93932724    -0.01600
Br2058     Br  0.90859006  0.11430443  0.87128499    -0.01600
Br2059     Br  0.85075234  0.99905406  0.94454785    -0.01600
Br2060     Br  0.84646931  0.99687993  0.87675536    -0.01600
C2061       C  0.85431900  0.45319418  0.68701755    -0.02700
C2062       C  0.84194026  0.42673308  0.69900551     0.07000
C2063       C  0.82915818  0.42279707  0.72562764    -0.02800
C2064       C  0.83108138  0.44504816  0.74083315    -0.02800
C2065       C  0.84648976  0.47167193  0.73033061     0.07100
C2066       C  0.85660475  0.47543746  0.70263294    -0.03000
Br2067     Br  0.87059415  0.00696069  0.68328160    -0.01600
Br2068     Br  0.86967786  0.46061289  0.64970039    -0.01600
Br2069     Br  0.81087904  0.43889726  0.77543960    -0.01600
Br2070     Br  0.80779380  0.38694080  0.74155294    -0.01600
C2071       C  0.95189100  0.35920492  0.81521913    -0.02700
C2072       C  0.93300435  0.33861856  0.83323885     0.07000
C2073       C  0.92811495  0.34599358  0.86016850    -0.02800
C2074       C  0.94038649  0.37355286  0.86810632    -0.02800
C2075       C  0.95788983  0.39385295  0.84938604     0.07100
C2076       C  0.96362550  0.38665227  0.82294725    -0.03000
Br2077     Br  0.98604058  0.41452210  0.79610658    -0.01600
Br2078     Br  0.96167397  0.35068738  0.77935520    -0.01600
Br2079     Br  0.93374548  0.38363851  0.90478900    -0.01600
Br2080     Br  0.90679984  0.31867925  0.88744284    -0.01600
C2081       C  0.58443232  0.48935070  0.84737577    -0.02700
C2082       C  0.59296022  0.00725428  0.82596183     0.07000
C2083       C  0.57467705  0.01502855  0.81573268    -0.02800
C2084       C  0.54783078  0.00251476  0.82586079    -0.02800
C2085       C  0.53881639  0.48358262  0.84682787     0.07100
C2086       C  0.55791646  0.47744209  0.85844658    -0.03000
Br2087     Br  0.54831762  0.45364149  0.89038535    -0.01600
Br2088     Br  0.61034082  0.48052212  0.86295014    -0.01600
Br2089     Br  0.52274651  0.01113731  0.80748659    -0.01600
Br2090     Br  0.58586285  0.04232174  0.78699001    -0.01600
C2091       C  0.95650767  0.50026698  0.86163507    -0.02700
C2092       C  0.95059392  0.47535516  0.84896171     0.07000
C2093       C  0.93170336  0.46492238  0.82654541    -0.02800
C2094       C  0.91863320  0.47895916  0.81751761    -0.02800
C2095       C  0.92523785  0.00421301  0.82864440     0.07100
C2096       C  0.94413865  0.01521254  0.85070049    -0.03000
Br2097     Br  0.95363168  0.05033240  0.86611016    -0.01600
Br2098     Br  0.98036315  0.01543049  0.89321861    -0.01600
Br2099     Br  0.89132063  0.46316667  0.78865057    -0.01600
Br2100     Br  0.92545255  0.43304256  0.80556046    -0.01600
C2101       C  0.50573664  0.32061120  0.71027979    -0.02700
C2102       C  0.50284937  0.34103618  0.69698317     0.07000
C2103       C  0.97958919  0.34149714  0.70127726    -0.02800
C2104       C  0.95665497  0.32061289  0.71494744    -0.02800
C2105       C  0.95849526  0.29982503  0.72948875     0.07100
C2106       C  0.98335899  0.29955324  0.72781656    -0.03000
Br2107     Br  0.98759079  0.27203821  0.74666486    -0.01600
Br2108     Br  0.53939900  0.32032617  0.70593480    -0.01600
Br2109     Br  0.92348322  0.32230281  0.71389147    -0.01600
Br2110     Br  0.97935211  0.37387546  0.68989641    -0.01600
C2111       C  0.58138637  0.45156100  0.70716100    -0.02700
C2112       C  0.58544812  0.42999816  0.69937596     0.07000
C2113       C  0.60925182  0.43020222  0.70782158    -0.02800
C2114       C  0.63007950  0.45303796  0.72192971    -0.02800
C2115       C  0.62672953  0.47544255  0.72857478     0.07100
C2116       C  0.60193021  0.47424429  0.72159126    -0.03000
Br2117     Br  0.59496898  0.50269716  0.73314706    -0.01600
Br2118     Br  0.54669774  0.44890454  0.69973998    -0.01600
Br2119     Br  0.66364595  0.45396917  0.73072186    -0.01600
Br2120     Br  0.61274019  0.39867656  0.70078249    -0.01600
C2121       C  0.51534095  0.38299837  0.59524444    -0.02700
C2122       C  0.54076301  0.39142324  0.60832539     0.07000
C2123       C  0.56443065  0.40216195  0.59117232    -0.02800
C2124       C  0.56227199  0.40256978  0.56162959    -0.02800
C2125       C  0.53644508  0.39164385  0.54877721     0.07100
C2126       C  0.51327709  0.38301323  0.56577371    -0.03000
Br2127     Br  0.97835718  0.36720357  0.55028683    -0.01600
Br2128     Br  0.98441092  0.36941227  0.61865631    -0.01600
Br2129     Br  0.59482199  0.41678805  0.53881039    -0.01600
Br2130     Br  0.59993241  0.41458821  0.60743602    -0.01600
C2131       C  0.59930588  0.05907350  0.68612277    -0.02700
C2132       C  0.58896249  0.07619294  0.69391134     0.07000
C2133       C  0.60222368  0.09578559  0.71530063    -0.02800
C2134       C  0.62343369  0.09606307  0.73078213    -0.02800
C2135       C  0.63317298  0.07837716  0.72349168     0.07100
C2136       C  0.62238156  0.06146704  0.69964626    -0.03000
Br2137     Br  0.63870402  0.04126897  0.68502223    -0.01600
Br2138     Br  0.58061461  0.03028180  0.65882464    -0.01600
Br2139     Br  0.63996593  0.12156098  0.76137133    -0.01600
Br2140     Br  0.59274824  0.12346002  0.72247274    -0.01600
C2141       C  0.95466124  0.04299494  0.71467768    -0.02700
C2142       C  0.95630453  0.06732275  0.72445373     0.07000
C2143       C  0.98008617  0.09247899  0.71864205    -0.02800
C2144       C  0.00096118  0.09325551  0.70180603    -0.02800
C2145       C  0.49990664  0.07142801  0.69607419     0.07100
C2146       C  0.47811015  0.04606926  0.70426447    -0.03000
Br2147     Br  0.47949921  0.01350983  0.69611906    -0.01600
Br2148     Br  0.92567003  0.00811757  0.72711674    -0.01600
Br2149     Br  0.03238798  0.12766810  0.69199082    -0.01600
Br2150     Br  0.98497201  0.12606273  0.73413923    -0.01600
C2151       C  0.51643496  0.05007449  0.59124734    -0.02700
C2152       C  0.54081122  0.06802697  0.60568376     0.07000
C2153       C  0.56477913  0.08458308  0.58999275    -0.02800
C2154       C  0.56413888  0.08374349  0.56053634    -0.02800
C2155       C  0.53952550  0.06713821  0.54630334     0.07100
C2156       C  0.51582061  0.04991057  0.56164739    -0.03000
Br2157     Br  0.99207542  0.02053308  0.53764269    -0.01600
Br2158     Br  0.99153627  0.01970615  0.60743313    -0.01600
Br2159     Br  0.59701294  0.10679625  0.53967351    -0.01600
Br2160     Br  0.59843528  0.11056787  0.60814130    -0.01600
C2161       C  0.54358953  0.57198669  0.63484867     0.79400
N2162       N  0.52240098  0.57116921  0.64917453    -0.78900
C2163       C  0.52253691  0.57166704  0.67763825     0.81800
N2164       N  0.54380672  0.57292322  0.69177042    -0.78900
C2165       C  0.56543956  0.57449360  0.67772846     0.81900
N2166       N  0.56503453  0.57398296  0.64930126    -0.80600
C2167       C  0.54391107  0.88604190  0.63899999     0.79400
N2168       N  0.52451031  0.86410394  0.65339453    -0.78900
C2169       C  0.52621876  0.86218543  0.68171378     0.81800
N2170       N  0.54753665  0.88242433  0.69585300    -0.78900
C2171       C  0.56722672  0.90434763  0.68199110     0.81900
N2172       N  0.56506413  0.90630748  0.65369735    -0.80600
C2173       C  0.96607943  0.96255643  0.85747410     0.79400
N2174       N  0.95508356  0.93513342  0.85768423    -0.78900
C2175       C  0.97138473  0.92403347  0.85751678     0.81800
N2176       N  0.99879924  0.94049487  0.85698062    -0.78900
C2177       C  0.51021723  0.96666375  0.85528854     0.81900
N2178       N  0.99356011  0.97863757  0.85741370    -0.80600
O2179       O  0.84669671  0.55779690  0.76676328    -0.86200
O2180       O  0.90037870  0.59539965  0.75597476    -0.83200
C2181       C  0.90502786  0.60933929  0.77806098     0.97300
O2182       O  0.90927008  0.60079868  0.80081187    -0.83300
O2183       O  0.90394721  0.56403994  0.84209690    -0.85900
C2184       C  0.88040395  0.55295036  0.85277163     1.01800
O2185       O  0.85960142  0.53909662  0.83772073    -0.78700
O2186       O  0.82831744  0.51903631  0.78889013    -0.78900
C2187       C  0.82605472  0.53802608  0.77784846     1.01700
O2188       O  0.85377610  0.51614140  0.74062562    -0.86200
O2189       O  0.90928907  0.55241016  0.73667394    -0.83300
C2190       C  0.93363341  0.56785457  0.74433920     0.97300
O2191       O  0.93853076  0.58179757  0.76653556    -0.83300
O2192       O  0.92748816  0.54207050  0.80555413    -0.85900
C2193       C  0.91318399  0.51997925  0.81845925     1.01800
O2194       O  0.88819369  0.51111399  0.82333328    -0.78700
O2195       O  0.86136832  0.99354442  0.77283698    -0.78900
C2196       C  0.85390519  0.49531579  0.74923723     1.01700
Cr2197     Cr  0.87817998  0.55491850  0.75268230     1.93700
Cr2198     Cr  0.91729502  0.57061978  0.80246755     1.93200
Cr2199     Cr  0.86099406  0.51836816  0.80455786     1.39100
O2200       O  0.88543682  0.54793877  0.78677860    -1.23900
O2201       O  0.89753202  0.71958509  0.75890066    -0.86200
O2202       O  0.84597179  0.70997582  0.76707412    -0.83200
C2203       C  0.82657330  0.71014142  0.77971701     0.97300
O2204       O  0.83037080  0.73121997  0.79287713    -0.83300
O2205       O  0.86232998  0.73809545  0.83956993    -0.85900
C2206       C  0.88238609  0.74548578  0.85563235     1.01800
O2207       O  0.90622916  0.75740512  0.84535909    -0.78700
O2208       O  0.90960388  0.72469052  0.80309433    -0.78900
C2209       C  0.90398290  0.71124029  0.78055566     1.01700
O2210       O  0.91260936  0.77349662  0.73921351    -0.86200
O2211       O  0.86083605  0.76314155  0.74392512    -0.83300
C2212       C  0.86175237  0.78402458  0.75480540     0.97300
O2213       O  0.86610132  0.78833513  0.78066442    -0.83300
O2214       O  0.89480163  0.79612753  0.82882463    -0.85900
C2215       C  0.91990361  0.81133047  0.82292342     1.01800
O2216       O  0.93217974  0.80219689  0.80847466    -0.78700
O2217       O  0.94115575  0.77245405  0.76877356    -0.78900
C2218       C  0.93667505  0.78127914  0.74626943     1.01700
Cr2219     Cr  0.87988007  0.74258840  0.75511209     1.93700
Cr2220     Cr  0.86513938  0.76272248  0.80890811     1.93200
Cr2221     Cr  0.91960410  0.76325959  0.80508685     1.39100
O2222       O  0.88813897  0.75619102  0.78964309    -1.23900
O2223       O  0.72335470  0.58864791  0.76017662    -0.86200
O2224       O  0.70916969  0.53467251  0.75380627    -0.83200
C2225       C  0.71988493  0.53259937  0.77612609     0.97300
O2226       O  0.70790904  0.53066189  0.79911887    -0.83300
O2227       O  0.67455694  0.53473632  0.83980680    -0.85900
C2228       C  0.68511791  0.55846684  0.84989187     1.01800
O2229       O  0.69107945  0.57843916  0.83404809    -0.78700
O2230       O  0.70259686  0.60683229  0.78336747    -0.78900
C2231       C  0.72377653  0.60881332  0.77198021     1.01700
O2232       O  0.67369008  0.57790138  0.73457904    -0.86200
O2233       O  0.65600893  0.52314308  0.73478421    -0.83300
C2234       C  0.64839058  0.49960416  0.74368725     0.97300
O2235       O  0.66042512  0.99541767  0.76656572    -0.83300
O2236       O  0.62941912  0.50746470  0.80346837    -0.85900
C2237       C  0.62035366  0.52148162  0.81470298     1.01800
O2238       O  0.63520415  0.54683411  0.81804074    -0.78700
O2239       O  0.64564215  0.57203989  0.76852191    -0.78900
C2240       C  0.65222114  0.57694075  0.74319920     1.01700
Cr2241     Cr  0.68953211  0.55560578  0.74853800     1.93700
Cr2242     Cr  0.66869369  0.51983075  0.80059842     1.93200
Cr2243     Cr  0.66943584  0.57436226  0.79952583     1.39100
O2244       O  0.67606579  0.55020683  0.78320766    -1.23900
C2245       C  0.84399343  0.87836986  0.64273057     0.79400
N2246       N  0.84648334  0.85988328  0.65855554    -0.78900
C2247       C  0.84632203  0.86134368  0.68711707     0.81800
N2248       N  0.84377924  0.88162176  0.69941785    -0.78900
C2249       C  0.84088280  0.90007638  0.68403663     0.81900
N2250       N  0.84103264  0.89811913  0.65561799    -0.80600
C2251       C  0.69719488  0.90560429  0.30714552     0.79400
N2252       N  0.67472525  0.90368589  0.31937111    -0.78900
C2253       C  0.67266427  0.90349824  0.34787915     0.81800
N2254       N  0.69357892  0.90555432  0.36365682    -0.78900
C2255       C  0.71644004  0.90777713  0.35187522     0.81900
N2256       N  0.71768826  0.90755764  0.32333206    -0.80600
C2257       C  0.01013928  0.71600215  0.31015127     0.79400
N2258       N  0.00448829  0.73326634  0.32480756    -0.78900
C2259       C  0.99812541  0.72967339  0.35266506     0.81800
N2260       N  0.99765358  0.70826161  0.36558700    -0.78900
C2261       C  0.00376040  0.69115822  0.35167333     0.81900
N2262       N  0.01026565  0.69521697  0.32400477    -0.80600
C2263       C  0.61469174  0.78928611  0.49980701     0.79400
N2264       N  0.64194562  0.80521166  0.50249250    -0.78900
C2265       C  0.65733420  0.79366324  0.50693776     0.81800
N2266       N  0.64550797  0.76632797  0.50838525    -0.78900
C2267       C  0.61827103  0.75035521  0.50495767     0.81900
N2268       N  0.60290778  0.76194571  0.50036400    -0.80600
O2269       O  0.98295495  0.86056702  0.42568584    -0.86200
O2270       O  0.52488112  0.91136200  0.42546084    -0.83200
C2271       C  0.54558510  0.93076180  0.43692598     0.97300
O2272       O  0.56350479  0.92711404  0.44852006    -0.83300
O2273       O  0.54542871  0.90077230  0.49944303    -0.85900
C2274       C  0.53175487  0.88219777  0.51678358     1.01800
O2275       O  0.51628399  0.85820085  0.50798363    -0.78700
O2276       O  0.98110448  0.85727698  0.47158905    -0.78900
C2277       C  0.97134318  0.85956717  0.44876052     1.01700
O2278       O  0.51637003  0.84045698  0.40282882    -0.86200
O2279       O  0.55868761  0.89316278  0.39937742    -0.83300
C2280       C  0.57930123  0.89273866  0.40841558     0.97300
O2281       O  0.58129552  0.88891089  0.43398777    -0.83300
O2282       O  0.56444870  0.86483602  0.48456633    -0.85900
C2283       C  0.55208163  0.83959452  0.47988956     1.01800
O2284       O  0.52833936  0.82714207  0.47013387    -0.78700
O2285       O  0.48653632  0.81773951  0.43537415    -0.78900
C2286       C  0.49843154  0.81798000  0.41270199     1.01700
Cr2287     Cr  0.52079248  0.87578515  0.41539190     1.93700
Cr2288     Cr  0.56094732  0.89366888  0.46519971     1.93200
Cr2289     Cr  0.50406399  0.84220060  0.46914283     1.39100
O2290       O  0.52871625  0.87088336  0.45009747    -1.23900
O2291       O  0.52904160  0.53489640  0.42536212    -0.86200
O2292       O  0.98912547  0.54766497  0.42281672    -0.83200
C2293       C  0.97684660  0.53830880  0.44589309     0.97300
O2294       O  0.98763697  0.55044196  0.46842874    -0.83300
O2295       O  0.52684795  0.58353271  0.50628588    -0.85900
C2296       C  0.54019832  0.57252710  0.51408860     1.01800
O2297       O  0.55320084  0.56672466  0.49657463    -0.78700
O2298       O  0.56945845  0.55703777  0.44483741    -0.78900
C2299       C  0.54983155  0.53527132  0.43514971     1.01700
O2300       O  0.56540284  0.58572864  0.39732581    -0.86200
O2301       O  0.52629874  0.59981703  0.40166131    -0.83300
C2302       C  0.51077137  0.60729086  0.41215140     0.97300
O2303       O  0.49893890  0.59746298  0.43529530    -0.83300
O2304       O  0.54186603  0.62762816  0.47007995    -0.85900
C2305       C  0.56532121  0.63696020  0.48026461     1.01800
O2306       O  0.57610959  0.62242899  0.48288106    -0.78700
O2307       O  0.58945393  0.61323355  0.43117190    -0.78900
C2308       C  0.58634392  0.60715564  0.40561238     1.01700
Cr2309     Cr  0.52776188  0.56774966  0.41454679     1.93700
Cr2310     Cr  0.51521734  0.58877631  0.46849346     1.93200
Cr2311     Cr  0.56946891  0.58907299  0.46260489     1.39100
O2312       O  0.53761389  0.58182697  0.44868893    -1.23900
O2313       O  0.86047119  0.92462797  0.42780427    -0.86200
O2314       O  0.87187213  0.88331308  0.43265106    -0.83200
C2315       C  0.87187645  0.86350306  0.44423601     0.97300
O2316       O  0.85024352  0.84423850  0.45469435    -0.83300
O2317       O  0.84317773  0.86362899  0.50480097    -0.85900
C2318       C  0.83865483  0.87789027  0.52181201     1.01800
O2319       O  0.82725555  0.89083179  0.51367234    -0.78700
O2320       O  0.86025453  0.92782582  0.47336855    -0.78900
C2321       C  0.87179205  0.93726740  0.45018863     1.01700
O2322       O  0.80620672  0.88539709  0.40948276    -0.86200
O2323       O  0.82002120  0.84536630  0.40759731    -0.83300
C2324       C  0.79872675  0.82486869  0.41687355     0.97300
O2325       O  0.79296110  0.82341742  0.44253054    -0.83300
O2326       O  0.78591668  0.84088875  0.49325881    -0.85900
C2327       C  0.77180253  0.85190632  0.48844312     1.01800
O2328       O  0.78199666  0.87511609  0.47783878    -0.78700
O2329       O  0.81163085  0.91565323  0.44104351    -0.78900
C2330       C  0.80059003  0.90286220  0.41854935     1.01700
Cr2331     Cr  0.83871847  0.88406921  0.42192356     1.93700
Cr2332     Cr  0.81875506  0.84549312  0.47250246     1.93200
Cr2333     Cr  0.82094833  0.90073673  0.47514602     1.39100
O2334       O  0.82611757  0.87658920  0.45664133    -1.23900
C2335       C  0.69700724  0.71884864  0.30436612     0.79400
N2336       N  0.71632337  0.73877422  0.32070122    -0.78900
C2337       C  0.71617342  0.73661642  0.34903187     0.81800
N2338       N  0.69571640  0.71405799  0.36145207    -0.78900
C2339       C  0.67599281  0.69385560  0.34553803     0.81900
N2340       N  0.67684162  0.69630717  0.31710042    -0.80600
C2341       C  0.87987848  0.55562624  0.97496121     0.79400
N2342       N  0.89957135  0.57694498  0.98991656    -0.78900
C2343       C  0.89936404  0.57695030  0.01853839     0.81800
N2344       N  0.87943748  0.55488545  0.03196364    -0.78900
C2345       C  0.85935988  0.53394387  0.01743519     0.81900
N2346       N  0.85948391  0.53469575  0.98912678    -0.80600
C2347       C  0.87740257  0.75511814  0.97744410     0.79400
N2348       N  0.89928925  0.75987570  0.99329300    -0.78900
C2349       C  0.90012744  0.76471398  0.02146197     0.81800
N2350       N  0.87852941  0.76498696  0.03343813    -0.78900
C2351       C  0.85626698  0.75983024  0.01821151     0.81900
N2352       N  0.85576629  0.75454055  0.99032215    -0.80600
C2353       C  0.79348672  0.63883030  0.18200622     0.79400
N2354       N  0.78477751  0.61186897  0.18328020    -0.78900
C2355       C  0.80300410  0.60311865  0.18374096     0.81800
N2356       N  0.82997125  0.62143135  0.18266646    -0.78900
C2357       C  0.83877987  0.64834431  0.18123648     0.81900
N2358       N  0.82055248  0.65706237  0.18038834    -0.80600
O2359       O  0.54246392  0.77367566  0.09319183    -0.86200
O2360       O  0.54772615  0.72840894  0.09623088    -0.83200
C2361       C  0.54636403  0.70817958  0.10841701     0.97300
O2362       O  0.52467382  0.69088528  0.12073675    -0.83300
O2363       O  0.51968304  0.71328869  0.16997878    -0.85900
C2364       C  0.51486221  0.72698176  0.18742113     1.01800
O2365       O  0.50527343  0.74147260  0.17899152    -0.78700
O2366       O  0.54176621  0.77675148  0.13889255    -0.78900
C2367       C  0.55364716  0.78611965  0.11582908     1.01700
O2368       O  0.48633807  0.73849677  0.07473288    -0.86200
O2369       O  0.49415956  0.69504123  0.07261809    -0.83300
C2370       C  0.97537998  0.67317208  0.08470936     0.97300
O2371       O  0.97256782  0.67229716  0.11084416    -0.83300
O2372       O  0.96545165  0.69244827  0.15973907    -0.85900
C2373       C  0.95185957  0.70409906  0.15447824     1.01800
O2374       O  0.96271176  0.72714844  0.14330172    -0.78700
O2375       O  0.99481987  0.76855145  0.10781632    -0.78900
C2376       C  0.98243043  0.75622818  0.08572354     1.01700
Cr2377     Cr  0.51674225  0.73340981  0.08679133     1.93700
Cr2378     Cr  0.99845966  0.69580442  0.13966869     1.93200
Cr2379     Cr  0.00194637  0.75149584  0.14140181     1.39100
O2380       O  0.50433141  0.72703669  0.12161501    -1.23900
O2381       O  0.72758129  0.89655163  0.08962075    -0.86200
O2382       O  0.67757307  0.88785721  0.10135380    -0.83200
C2383       C  0.65791127  0.88827354  0.11275373     0.97300
O2384       O  0.66181993  0.91025775  0.12382592    -0.83300
O2385       O  0.69255542  0.91698888  0.17191398    -0.85900
C2386       C  0.71271899  0.92143350  0.18678420     1.01800
O2387       O  0.73629010  0.93233999  0.17607636    -0.78700
O2388       O  0.73899941  0.90047700  0.13363062    -0.78900
C2389       C  0.73246977  0.88687691  0.11113759     1.01700
O2390       O  0.74269151  0.95031634  0.07062967    -0.86200
O2391       O  0.69088323  0.94006871  0.07610400    -0.83300
C2392       C  0.69391593  0.96214499  0.08612172     0.97300
O2393       O  0.69900232  0.96717294  0.11174626    -0.83300
O2394       O  0.72614064  0.97377679  0.16012812    -0.85900
C2395       C  0.75125807  0.98850865  0.15465246     1.01800
O2396       O  0.76350182  0.97869624  0.14116000    -0.78700
O2397       O  0.77110113  0.94915069  0.10020549    -0.78900
C2398       C  0.76672228  0.95776857  0.07752615     1.01700
Cr2399     Cr  0.71025251  0.91978289  0.08715991     1.93700
Cr2400     Cr  0.69652752  0.94120496  0.14031668     1.93200
Cr2401     Cr  0.75000218  0.93950248  0.13649957     1.39100
O2402       O  0.71904060  0.93367276  0.12139765    -1.23900
O2403       O  0.66125724  0.71039571  0.08694301    -0.86200
O2404       O  0.70510435  0.76189210  0.09487717    -0.83200
C2405       C  0.72487853  0.78047575  0.10831619     0.97300
O2406       O  0.74193159  0.77587106  0.12051783    -0.83300
O2407       O  0.71837841  0.74486496  0.16749046    -0.85900
C2408       C  0.70318624  0.72485600  0.18266067     1.01800
O2409       O  0.69082959  0.70125416  0.17211955    -0.78700
O2410       O  0.65554917  0.70097812  0.13189485    -0.78900
C2411       C  0.64740707  0.70586450  0.10931628     1.01700
O2412       O  0.69905459  0.69323611  0.06667822    -0.86200
O2413       O  0.74148207  0.74583370  0.06975684    -0.83300
C2414       C  0.76138078  0.74457484  0.07988517     0.97300
O2415       O  0.76153963  0.73896852  0.10530984    -0.83300
O2416       O  0.74046321  0.71052249  0.15362020    -0.85900
C2417       C  0.72913592  0.68535473  0.14792226     1.01800
O2418       O  0.70722108  0.67362725  0.13415412    -0.78700
O2419       O  0.66767028  0.66721187  0.09612224    -0.78900
C2420       C  0.68081061  0.66971625  0.07378642     1.01700
Cr2421     Cr  0.70211547  0.72716730  0.08226320     1.93700
Cr2422     Cr  0.73810488  0.74088357  0.13508243     1.93200
Cr2423     Cr  0.68226360  0.68830752  0.13224957     1.39100
O2424       O  0.70761788  0.71902148  0.11659799    -1.23900
C2425       C  0.68550147  0.55886525  0.97206547     0.79400
N2426       N  0.68795693  0.54023376  0.98772786    -0.78900
C2427       C  0.68738229  0.54136712  0.01631646     0.81800
N2428       N  0.68475797  0.56149484  0.02890392    -0.78900
C2429       C  0.68199499  0.58006855  0.01369970     0.81900
N2430       N  0.68215634  0.57828216  0.98527648    -0.80600
C2431       C  0.66360237  0.61871944  0.06825459    -0.02700
C2432       C  0.67587660  0.64520343  0.05655137     0.07000
C2433       C  0.68597601  0.64855221  0.02876230    -0.02800
C2434       C  0.68917827  0.62805972  0.01544362    -0.02800
C2435       C  0.67888465  0.60214534  0.02800145     0.07100
C2436       C  0.66500136  0.59744579  0.05408979    -0.03000
Br2437     Br  0.64694100  0.56167885  0.07090474    -0.01600
Br2438     Br  0.64349818  0.61028725  0.10319411    -0.01600
Br2439     Br  0.71037151  0.63752131  0.98117138    -0.01600
Br2440     Br  0.69317571  0.68024435  0.00730917    -0.01600
C2441       C  0.73481562  0.82386986  0.08474956    -0.02700
C2442       C  0.72824086  0.80817258  0.10929607     0.07000
C2443       C  0.72306111  0.81822815  0.13423594    -0.02800
C2444       C  0.72313157  0.84305906  0.13436282    -0.02800
C2445       C  0.73065630  0.85954270  0.11003119     0.07100
C2446       C  0.73596787  0.84930526  0.08493451    -0.03000
Br2447     Br  0.74451224  0.86924799  0.05019943    -0.01600
Br2448     Br  0.74368277  0.81086176  0.05107019    -0.01600
Br2449     Br  0.70939103  0.85218461  0.16732298    -0.01600
Br2450     Br  0.71561977  0.79798679  0.16858027    -0.01600
C2451       C  0.67400820  0.97456362  0.04481338    -0.02700
C2452       C  0.69209753  0.98267683  0.06788331     0.07000
C2453       C  0.70940672  0.01097912  0.07295604    -0.02800
C2454       C  0.70889368  0.03045804  0.05525983    -0.02800
C2455       C  0.69084610  0.02230850  0.03234690     0.07100
C2456       C  0.67362731  0.99421537  0.02702090    -0.03000
Br2457     Br  0.64863798  0.98234783  0.99585596    -0.01600
Br2458     Br  0.64806632  0.93657069  0.03847833    -0.01600
Br2459     Br  0.73516345  0.56836481  0.05992996    -0.01600
Br2460     Br  0.73534305  0.02422536  0.10328139    -0.01600
C2461       C  0.59837270  0.68545163  0.09463297    -0.02700
C2462       C  0.62124679  0.70588832  0.10902000     0.07000
C2463       C  0.61895454  0.72621913  0.12370604    -0.02800
C2464       C  0.59411707  0.72611235  0.12425985    -0.02800
C2465       C  0.57134138  0.70601250  0.10954287     0.07100
C2466       C  0.57345428  0.68547378  0.09492794    -0.03000
Br2467     Br  0.54255092  0.65775977  0.07485008    -0.01600
Br2468     Br  0.60123906  0.65731653  0.07480316    -0.01600
Br2469     Br  0.59098849  0.75316075  0.14610053    -0.01600
Br2470     Br  0.65030847  0.75530379  0.14177212    -0.01600
C2471       C  0.60076633  0.81564384  0.09612862    -0.02700
C2472       C  0.58011154  0.81228404  0.11505803     0.07000
C2473       C  0.58470183  0.83420589  0.13283740    -0.02800
C2474       C  0.60956151  0.85916188  0.13171616    -0.02800
C2475       C  0.63050608  0.86265407  0.11278334     0.07100
C2476       C  0.62544185  0.84060484  0.09450582    -0.03000
Br2477     Br  0.65117281  0.84355081  0.06569588    -0.01600
Br2478     Br  0.59635886  0.78544854  0.07318648    -0.01600
Br2479     Br  0.61390266  0.88801123  0.15676777    -0.01600
Br2480     Br  0.55665645  0.83075464  0.15861787    -0.01600
C2481       C  0.76845530  0.66317737  0.19408675    -0.02700
C2482       C  0.77402490  0.64764838  0.17505057     0.07000
C2483       C  0.76223902  0.64174948  0.14818580    -0.02800
C2484       C  0.74621477  0.65279308  0.13967143    -0.02800
C2485       C  0.74192036  0.66984573  0.15806202     0.07100
C2486       C  0.75177925  0.67361718  0.18585802    -0.03000
Br2487     Br  0.74085776  0.69124943  0.21338204    -0.01600
Br2488     Br  0.78388985  0.67030224  0.23125222    -0.01600
Br2489     Br  0.73143217  0.64517424  0.10234777    -0.01600
Br2490     Br  0.76978217  0.62009475  0.12218599    -0.01600
C2491       C  0.77472042  0.55503184  0.19861942    -0.02700
C2492       C  0.79336968  0.57405775  0.17963866     0.07000
C2493       C  0.80064700  0.56518648  0.15516317    -0.02800
C2494       C  0.78904490  0.53727873  0.14956308    -0.02800
C2495       C  0.76779329  0.51798631  0.16698817     0.07100
C2496       C  0.76085625  0.52721101  0.19178172    -0.03000
Br2497     Br  0.72532753  0.00171541  0.20954690    -0.01600
Br2498     Br  0.76896879  0.56739970  0.23445991    -0.01600
Br2499     Br  0.80156526  0.52674643  0.11646172    -0.01600
Br2500     Br  0.82441816  0.59112619  0.12752757    -0.01600
C2501       C  0.87597725  0.67327985  0.14701722    -0.02700
C2502       C  0.86752474  0.66684877  0.17510224     0.07000
C2503       C  0.88675694  0.67408684  0.19657432    -0.02800
C2504       C  0.91446080  0.68561084  0.18985686    -0.02800
C2505       C  0.92291310  0.69105563  0.16166898     0.07100
C2506       C  0.90373920  0.68566044  0.14029133    -0.03000
Br2507     Br  0.91510782  0.69346089  0.10150266    -0.01600
Br2508     Br  0.84950343  0.66431203  0.11762137    -0.01600
Br2509     Br  0.94064274  0.69411522  0.21929996    -0.01600
Br2510     Br  0.87489606  0.66893440  0.23511542    -0.01600
C2511       C  0.78441532  0.72767152  0.04720894    -0.02700
C2512       C  0.78487736  0.74947177  0.06190617     0.07000
C2513       C  0.80874931  0.77521374  0.06134354    -0.02800
C2514       C  0.83204263  0.77892456  0.04656860    -0.02800
C2515       C  0.83162054  0.75683490  0.03239499     0.07100
C2516       C  0.80760267  0.73123772  0.03264433    -0.03000
Br2517     Br  0.80698760  0.70035478  0.01469875    -0.01600
Br2518     Br  0.75237447  0.69242411  0.04780398    -0.01600
Br2519     Br  0.86438692  0.81430928  0.04533265    -0.01600
Br2520     Br  0.80947804  0.80519214  0.08119863    -0.01600
C2521       C  0.92104381  0.76336378  0.06876930    -0.02700
C2522       C  0.92347872  0.76727466  0.03906195     0.07000
C2523       C  0.94837173  0.77246822  0.02626839    -0.02800
C2524       C  0.96753091  0.76870706  0.04141593    -0.02800
C2525       C  0.96439396  0.76386944  0.07047886     0.07100
C2526       C  0.94251127  0.76407955  0.08432898    -0.03000
Br2527     Br  0.94150519  0.76512088  0.12480953    -0.01600
Br2528     Br  0.88816895  0.75458323  0.08947015    -0.01600
Br2529     Br  0.49353307  0.75887236  0.01742265    -0.01600
Br2530     Br  0.95834199  0.78701996  0.98876850    -0.01600
C2531       C  0.83830415  0.00027408  0.04638676    -0.02700
C2532       C  0.83457877  0.01751050  0.02833470     0.07000
C2533       C  0.80836502  0.01356070  0.02409931    -0.02800
C2534       C  0.78615935  0.99395809  0.03971133    -0.02800
C2535       C  0.78978229  0.97704694  0.05908684     0.07100
C2536       C  0.81597042  0.97964983  0.06118201    -0.03000
Br2537     Br  0.82173797  0.95417538  0.08242989    -0.01600
Br2538     Br  0.87218831  0.49570149  0.05315554    -0.01600
Br2539     Br  0.75152151  0.99211750  0.03408167    -0.01600
Br2540     Br  0.80677636  0.53616635  0.00406988    -0.01600
C2541       C  0.91071184  0.60788247  0.06104969    -0.02700
C2542       C  0.91895557  0.60167537  0.03518964     0.07000
C2543       C  0.94576914  0.61950978  0.02548717    -0.02800
C2544       C  0.96339440  0.64360295  0.04046880    -0.02800
C2545       C  0.95590902  0.64877446  0.06734290     0.07100
C2546       C  0.92944447  0.62991252  0.07775382    -0.03000
Br2547     Br  0.91732749  0.63301052  0.11505848    -0.01600
Br2548     Br  0.87301191  0.58797938  0.07357835    -0.01600
Br2549     Br  0.49913152  0.66654818  0.02549156    -0.01600
Br2550     Br  0.95974727  0.61044954  0.99257415    -0.01600
C2551       C  0.67583435  0.71349728  0.22696092    -0.02700
C2552       C  0.70127648  0.72799901  0.21346664     0.07000
C2553       C  0.72508695  0.74160214  0.22986613    -0.02800
C2554       C  0.72379584  0.73762526  0.25914509    -0.02800
C2555       C  0.69823002  0.72213558  0.27297348     0.07100
C2556       C  0.67415574  0.71066289  0.25640796    -0.03000
Br2557     Br  0.63826554  0.69090870  0.27286892    -0.01600
Br2558     Br  0.64297597  0.69864757  0.20473802    -0.01600
Br2559     Br  0.75797583  0.75093968  0.27886140    -0.01600
Br2560     Br  0.76005941  0.76481592  0.21233436    -0.01600
C2561       C  0.75144331  0.75367529  0.38775565    -0.02700
C2562       C  0.73811878  0.75912388  0.36592239     0.07000
C2563       C  0.74686024  0.78650758  0.35935422    -0.02800
C2564       C  0.76852027  0.80785130  0.37420170    -0.02800
C2565       C  0.77993575  0.80239680  0.39774754     0.07100
C2566       C  0.77142175  0.77509558  0.40423791    -0.03000
Br2567     Br  0.78827952  0.76696911  0.43481961    -0.01600
Br2568     Br  0.74433492  0.71725793  0.39386400    -0.01600
Br2569     Br  0.78206317  0.84448667  0.36180908    -0.01600
Br2570     Br  0.72813769  0.79545390  0.33132424    -0.01600
C2571       C  0.90413581  0.98481888  0.46768581    -0.02700
C2572       C  0.89842721  0.96314733  0.44902802     0.07000
C2573       C  0.91872046  0.96604306  0.42968743    -0.02800
C2574       C  0.94431668  0.98998790  0.42922943    -0.02800
C2575       C  0.94952443  0.51341624  0.44643649     0.07100
C2576       C  0.92934152  0.51113520  0.46563564    -0.03000
Br2577     Br  0.93563685  0.54130991  0.48966265    -0.01600
Br2578     Br  0.87624570  0.98274315  0.49282638     0.03200
Br2579     Br  0.97185704  0.99149984  0.40406227    -0.01600
Br2580     Br  0.91267707  0.93695500  0.40413537    -0.01600
C2581       C  0.65632348  0.65052537  0.37327810    -0.02700
C2582       C  0.65271381  0.67013785  0.35910521     0.07000
C2583       C  0.62651471  0.66697019  0.35779345    -0.02800
C2584       C  0.60400490  0.64362567  0.36897883    -0.02800
C2585       C  0.60800392  0.62572201  0.38593800     0.07100
C2586       C  0.63439900  0.62937156  0.38806415    -0.03000
Br2587     Br  0.64043004  0.60534356  0.41134072    -0.01600
Br2588     Br  0.69093620  0.65210912  0.37183104    -0.01600
Br2589     Br  0.56806326  0.63617067  0.35973454    -0.01600
Br2590     Br  0.62177991  0.69611701  0.34396443    -0.01600
C2591       C  0.92278170  0.83953147  0.43453850    -0.02700
C2592       C  0.94575349  0.86022033  0.44848574     0.07000
C2593       C  0.94471804  0.88232470  0.46060163    -0.02800
C2594       C  0.92060851  0.88357068  0.45901106    -0.02800
C2595       C  0.89742661  0.86262834  0.44534560     0.07100
C2596       C  0.89866119  0.84069933  0.43302712    -0.03000
Br2597     Br  0.86775037  0.81295037  0.41275254    -0.01600
Br2598     Br  0.92426800  0.80932508  0.41778057    -0.01600
Br2599     Br  0.91935665  0.91370616  0.47625714    -0.01600
Br2600     Br  0.97679404  0.91153364  0.47818948    -0.01600
C2601       C  0.55288454  0.97275769  0.46202633    -0.02700
C2602       C  0.54885669  0.95823406  0.43672624     0.07000
C2603       C  0.54681065  0.96960745  0.41133702    -0.02800
C2604       C  0.54686342  0.99438806  0.41146088    -0.02800
C2605       C  0.55129395  0.50995896  0.43516022     0.07100
C2606       C  0.55924468  0.50178701  0.45957547    -0.03000
Br2607     Br  0.57059939  0.52418758  0.49291358    -0.01600
Br2608     Br  0.55599384  0.95808316  0.49723390    -0.01600
Br2609     Br  0.54421448  0.00972789  0.37650928    -0.01600
Br2610     Br  0.54579499  0.95209980  0.37617735    -0.01600
C2611       C  0.58069609  0.70297291  0.51393161    -0.02700
C2612       C  0.60613524  0.72090897  0.50148776     0.07000
C2613       C  0.61898573  0.71068930  0.48373768    -0.02800
C2614       C  0.60639281  0.68281101  0.47840045    -0.02800
C2615       C  0.58032759  0.66523448  0.48948417     0.07100
C2616       C  0.56787095  0.67509520  0.50796326    -0.03000
Br2617     Br  0.53370126  0.65014148  0.52592593    -0.01600
Br2618     Br  0.56299745  0.71620278  0.53895593    -0.01600
Br2619     Br  0.62459663  0.66946285  0.45430387    -0.01600
Br2620     Br  0.65222631  0.73448084  0.46351868    -0.01600
C2621       C  0.70419301  0.81904450  0.52594641    -0.02700
C2622       C  0.68657517  0.80969938  0.50286185     0.07000
C2623       C  0.69682423  0.81470827  0.47529187    -0.02800
C2624       C  0.72488834  0.82774827  0.47078994    -0.02800
C2625       C  0.74265514  0.83705431  0.49385666     0.07100
C2626       C  0.73243397  0.83344873  0.52141167    -0.03000
Br2627     Br  0.75683156  0.84979746  0.55256346    -0.01600
Br2628     Br  0.68943373  0.81269005  0.56342976    -0.01600
Br2629     Br  0.73885704  0.83242306  0.43294195    -0.01600
Br2630     Br  0.67256615  0.80410157  0.44355533    -0.01600
C2631       C  0.59031809  0.81177678  0.51748640    -0.02700
C2632       C  0.59818951  0.80152442  0.49471813     0.07000
C2633       C  0.59042045  0.80305179  0.46720540    -0.02800
C2634       C  0.57438699  0.81483742  0.46247834    -0.02800
C2635       C  0.56620588  0.82485931  0.48530240     0.07100
C2636       C  0.57394466  0.82321369  0.51281440    -0.03000
Br2637     Br  0.56177328  0.83614454  0.54400079    -0.01600
Br2638     Br  0.60265796  0.81071754  0.55480976    -0.01600
Br2639     Br  0.56526518  0.81887707  0.42465508    -0.01600
Br2640     Br  0.60301223  0.79054197  0.43592723    -0.01600
C2641       C  0.98472223  0.62363121  0.38611044    -0.02700
C2642       C  0.50650541  0.62748647  0.39694523     0.07000
C2643       C  0.52681978  0.65525492  0.39752919    -0.02800
C2644       C  0.52408079  0.67423572  0.38122977    -0.02800
C2645       C  0.00562840  0.66980065  0.36738600     0.07100
C2646       C  0.98257393  0.64378196  0.37104705    -0.03000
Br2647     Br  0.94798116  0.63613219  0.35600578    -0.01600
Br2648     Br  0.95341494  0.58774644  0.39005605    -0.01600
Br2649     Br  0.55352700  0.71151649  0.37962628    -0.01600
Br2650     Br  0.55886586  0.66772091  0.42024240    -0.01600
C2651       C  0.48581204  0.76679579  0.35392355    -0.02700
C2652       C  0.99363217  0.74995131  0.36929101     0.07000
C2653       C  0.99419874  0.75070306  0.39929675    -0.02800
C2654       C  0.99286017  0.77161250  0.41414821    -0.02800
C2655       C  0.49205605  0.79213658  0.39779250     0.07100
C2656       C  0.48817724  0.78964520  0.36849839    -0.03000
Br2657     Br  0.48470198  0.81702974  0.34827347    -0.01600
Br2658     Br  0.47265055  0.76095796  0.31573878    -0.01600
Br2659     Br  0.98999669  0.76980370  0.45461985    -0.01600
Br2660     Br  0.99797776  0.72453531  0.42182663    -0.01600
C2661       C  0.00202338  0.69597296  0.26120146    -0.02700
C2662       C  0.01483905  0.71904372  0.27906134     0.07000
C2663       C  0.52688616  0.74202120  0.26573828    -0.02800
C2664       C  0.52947404  0.74572989  0.23635739    -0.02800
C2665       C  0.51662828  0.72321485  0.21806380     0.07100
C2666       C  0.00545413  0.69881850  0.23184926    -0.03000
Br2667     Br  0.98861214  0.66668409  0.20833490    -0.01600
Br2668     Br  0.97699835  0.66040516  0.27610355    -0.01600
Br2669     Br  0.55146418  0.78168523  0.22103214    -0.01600
Br2670     Br  0.54751624  0.77309473  0.28993187    -0.01600
C2671       C  0.73888760  0.90988916  0.39944095    -0.02700
C2672       C  0.73999074  0.91017703  0.36940355     0.07000
C2673       C  0.76406570  0.91263379  0.35666581    -0.02800
C2674       C  0.78436186  0.91185694  0.37306332    -0.02800
C2675       C  0.78133411  0.90832490  0.40230846     0.07100
C2676       C  0.75912241  0.90854599  0.41543492    -0.03000
Br2677     Br  0.75561917  0.90628693  0.45577169    -0.01600
Br2678     Br  0.71087559  0.91242389  0.42038785    -0.01600
Br2679     Br  0.81775805  0.91757918  0.35558714    -0.01600
Br2680     Br  0.77165181  0.91822451  0.31677916    -0.01600
C2681       C  0.65093435  0.92288362  0.37948313    -0.02700
C2682       C  0.64826515  0.90187150  0.36142190     0.07000
C2683       C  0.62200520  0.87956202  0.35608046    -0.02800
C2684       C  0.59891678  0.87781821  0.36934396    -0.02800
C2685       C  0.60203268  0.89750033  0.38939672     0.07100
C2686       C  0.62791873  0.92058813  0.39347068    -0.03000
Br2687     Br  0.63126326  0.94978568  0.41709276    -0.01600
Br2688     Br  0.68590466  0.95529828  0.38443338    -0.01600
Br2689     Br  0.56314041  0.84851972  0.35972158    -0.01600
Br2690     Br  0.61762013  0.85007084  0.33238446    -0.01600
C2691       C  0.72298132  0.93302291  0.26560417    -0.02700
C2692       C  0.70115142  0.90886270  0.27631600     0.07000
C2693       C  0.68372498  0.88809327  0.25768510    -0.02800
C2694       C  0.68694136  0.89223928  0.22842609    -0.02800
C2695       C  0.70936857  0.91616059  0.21755958     0.07100
C2696       C  0.72809102  0.93602157  0.23657150    -0.03000
Br2697     Br  0.76096888  0.96789606  0.22387102    -0.01600
Br2698     Br  0.74493536  0.96306126  0.29063006    -0.01600
Br2699     Br  0.66090354  0.86447775  0.20361721    -0.01600
Br2700     Br  0.65673089  0.85324133  0.27207139    -0.01600
C2701       C  0.86405438  0.89934340  0.56650813    -0.02700
C2702       C  0.84328249  0.87678946  0.55216854     0.07000
C2703       C  0.82452427  0.85380273  0.56748653    -0.02800
C2704       C  0.82404518  0.85481935  0.59692612    -0.02800
C2705       C  0.84464036  0.87732620  0.61154981     0.07100
C2706       C  0.86532399  0.89920052  0.59610319    -0.03000
Br2707     Br  0.89580906  0.92859458  0.61525076    -0.01600
Br2708     Br  0.89122906  0.92980231  0.54540296    -0.01600
Br2709     Br  0.79299354  0.82691289  0.61653865    -0.01600
Br2710     Br  0.79945890  0.82060897  0.54826237    -0.01600
C2711       C  0.66449435  0.55839566  0.92581772    -0.02700
C2712       C  0.68576286  0.55817249  0.94071425     0.07000
C2713       C  0.70786750  0.55946940  0.92547742    -0.02800
C2714       C  0.70825611  0.56041716  0.89574754    -0.02800
C2715       C  0.68741423  0.56164208  0.88103407     0.07100
C2716       C  0.66596455  0.56141803  0.89644860    -0.03000
Br2717     Br  0.63833931  0.56553716  0.87770629    -0.01600
Br2718     Br  0.63187400  0.55199982  0.94536758    -0.01600
Br2719     Br  0.73756923  0.56057960  0.87501197    -0.01600
Br2720     Br  0.73808744  0.56088321  0.94519331    -0.01600
C2721       C  0.79609803  0.66096384  0.79120917    -0.02700
C2722       C  0.79932564  0.68492179  0.77906575     0.07000
C2723       C  0.77729282  0.68370238  0.76421681    -0.02800
C2724       C  0.75269353  0.65866985  0.76107825    -0.02800
C2725       C  0.74970482  0.63494034  0.77361498     0.07100
C2726       C  0.77145181  0.63621725  0.78876410    -0.03000
Br2727     Br  0.76713901  0.60404007  0.80699584    -0.01600
Br2728     Br  0.82515129  0.66199335  0.81215558    -0.01600
Br2729     Br  0.72381932  0.65635997  0.73795597    -0.01600
Br2730     Br  0.78094116  0.71599336  0.74752438    -0.01600
C2731       C  0.89301849  0.73649523  0.90476509    -0.02700
C2732       C  0.87841311  0.74422937  0.88678589     0.07000
C2733       C  0.86243080  0.75437501  0.89891607    -0.02800
C2734       C  0.86342155  0.75935682  0.92806806    -0.02800
C2735       C  0.87714976  0.75057405  0.94626401     0.07100
C2736       C  0.89087121  0.73788605  0.93422110    -0.03000
Br2737     Br  0.90569243  0.72071992  0.95743765    -0.01600
Br2738     Br  0.91641475  0.72414911  0.88948357    -0.01600
Br2739     Br  0.84881328  0.78161003  0.94170378    -0.01600
Br2740     Br  0.84109186  0.76448555  0.87561251    -0.01600
C2741       C  0.87034370  0.83185883  0.74510604    -0.02700
C2742       C  0.85769297  0.80382905  0.73739816     0.07000
C2743       C  0.84141866  0.79536927  0.71286252    -0.02800
C2744       C  0.83561161  0.81351444  0.69860094    -0.02800
C2745       C  0.84985766  0.84159227  0.70481826     0.07100
C2746       C  0.86770607  0.85065452  0.72802525    -0.03000
Br2747     Br  0.89000738  0.88914873  0.73592136    -0.01600
Br2748     Br  0.89311052  0.84603766  0.77802483    -0.01600
Br2749     Br  0.80504960  0.79869636  0.67351800    -0.01600
Br2750     Br  0.82734017  0.75944211  0.69709355    -0.01600
C2751       C  0.89209838  0.64119359  0.79968883    -0.02700
C2752       C  0.90463939  0.63528900  0.77745375     0.07000
C2753       C  0.91547996  0.65373621  0.75481587    -0.02800
C2754       C  0.91443445  0.67806668  0.75524225    -0.02800
C2755       C  0.90486808  0.68540510  0.77943328     0.07100
C2756       C  0.89486795  0.66701597  0.80219201    -0.03000
Br2757     Br  0.88529207  0.67615884  0.83768565    -0.01600
Br2758     Br  0.86643395  0.61228305  0.82368343    -0.01600
Br2759     Br  0.92732356  0.70150416  0.72282583    -0.01600
Br2760     Br  0.93159240  0.64605148  0.72288901    -0.01600
C2761       C  0.79156855  0.54758378  0.75436288    -0.02700
C2762       C  0.79870634  0.53632930  0.77700433     0.07000
C2763       C  0.77896181  0.52240258  0.79823982    -0.02800
C2764       C  0.75280157  0.51956664  0.79673249    -0.02800
C2765       C  0.74633678  0.53244208  0.77526195     0.07100
C2766       C  0.76586077  0.54597026  0.75365143    -0.03000
Br2767     Br  0.75825552  0.56269896  0.72238472    -0.01600
Br2768     Br  0.81624920  0.56448472  0.72305512    -0.01600
Br2769     Br  0.72519029  0.49563901  0.82312265    -0.01600
Br2770     Br  0.78751784  0.50810247  0.83085787    -0.01600
C2771       C  0.89032415  0.57889698  0.89828488    -0.02700
C2772       C  0.87800110  0.55387954  0.88373630     0.07000
C2773       C  0.86685356  0.52950597  0.89906546    -0.02800
C2774       C  0.86814719  0.53006189  0.92859583    -0.02800
C2775       C  0.87965264  0.55522381  0.94348658     0.07100
C2776       C  0.89029174  0.57963748  0.92787230    -0.03000
Br2777     Br  0.90379900  0.61455081  0.94611309    -0.01600
Br2778     Br  0.90777097  0.61252145  0.87771057    -0.01600
Br2779     Br  0.85566322  0.49571983  0.94754770    -0.01600
Br2780     Br  0.85186858  0.49503557  0.87949772    -0.01600
C2781       C  0.84918233  0.94881334  0.68532793    -0.02700
C2782       C  0.83944398  0.92309715  0.69841978     0.07000
C2783       C  0.82940240  0.92004493  0.72632352    -0.02800
C2784       C  0.83242188  0.94271819  0.74166758    -0.02800
C2785       C  0.84620712  0.96902882  0.72988057     0.07100
C2786       C  0.85340491  0.97169330  0.70118511    -0.03000
Br2787     Br  0.87467265  0.51127171  0.68594122    -0.01600
Br2788     Br  0.85637434  0.95403641  0.64554589    -0.01600
Br2789     Br  0.81604703  0.93720054  0.77855136    -0.01600
Br2790     Br  0.80938808  0.88458566  0.74359796    -0.01600
C2791       C  0.95446121  0.86094846  0.81557273    -0.02700
C2792       C  0.93504562  0.84007913  0.83305902     0.07000
C2793       C  0.93002743  0.84714422  0.86008157    -0.02800
C2794       C  0.94191037  0.87460710  0.86825546    -0.02800
C2795       C  0.95976210  0.89517971  0.84999055     0.07100
C2796       C  0.96630399  0.88831462  0.82378236    -0.03000
Br2797     Br  0.99022548  0.91653828  0.79795324    -0.01600
Br2798     Br  0.96536846  0.85305170  0.78004510    -0.01600
Br2799     Br  0.93438863  0.88421479  0.90477569    -0.01600
Br2800     Br  0.90978344  0.81961672  0.88747991    -0.01600
C2801       C  0.58499140  0.98837197  0.84791509    -0.02700
C2802       C  0.59231178  0.50824308  0.82543689     0.07000
C2803       C  0.57393403  0.51584014  0.81512934    -0.02800
C2804       C  0.54712113  0.50326446  0.82528871    -0.02800
C2805       C  0.53940755  0.98293231  0.84752345     0.07100
C2806       C  0.55839978  0.97642154  0.85888498    -0.03000
Br2807     Br  0.54850617  0.95154965  0.88993698    -0.01600
Br2808     Br  0.61104987  0.97993899  0.86391844    -0.01600
Br2809     Br  0.52207425  0.51234828  0.80753377    -0.01600
Br2810     Br  0.58486132  0.54274013  0.78608226    -0.01600
C2811       C  0.95580490  0.00051476  0.86176322    -0.02700
C2812       C  0.94935102  0.97500276  0.85014852     0.07000
C2813       C  0.92979582  0.96374713  0.82834695    -0.02800
C2814       C  0.91737900  0.97806248  0.81828070    -0.02800
C2815       C  0.92582141  0.50454291  0.82906866     0.07100
C2816       C  0.94459279  0.51503766  0.85132219    -0.03000
Br2817     Br  0.95340989  0.54942732  0.86817634    -0.01600
Br2818     Br  0.98058684  0.51410970  0.89351825    -0.01600
Br2819     Br  0.89036105  0.96203959  0.78923282    -0.01600
Br2820     Br  0.92131485  0.93003788  0.80966182    -0.01600
C2821       C  0.50443006  0.81880423  0.70977660    -0.02700
C2822       C  0.50295984  0.84053594  0.69770667     0.07000
C2823       C  0.97946484  0.84377237  0.70116347    -0.02800
C2824       C  0.95725686  0.82290964  0.71561492    -0.02800
C2825       C  0.95943291  0.80151405  0.72820745     0.07100
C2826       C  0.98358210  0.80040457  0.72372672    -0.03000
Br2827     Br  0.98741027  0.77128348  0.73917715    -0.01600
Br2828     Br  0.53651448  0.81602060  0.70343076    -0.01600
Br2829     Br  0.92466615  0.82542996  0.71865715    -0.01600
Br2830     Br  0.97850622  0.87591459  0.69015648    -0.01600
C2831       C  0.58321020  0.94812625  0.70778271    -0.02700
C2832       C  0.58845644  0.92770498  0.69835949     0.07000
C2833       C  0.61303427  0.92900810  0.70615728    -0.02800
C2834       C  0.63331120  0.95194075  0.72088424    -0.02800
C2835       C  0.62860867  0.97317735  0.72904346     0.07100
C2836       C  0.60298432  0.97054614  0.72324916    -0.03000
Br2837     Br  0.59374274  0.99629998  0.73860199    -0.01600
Br2838     Br  0.54799144  0.94434548  0.70092491    -0.01600
Br2839     Br  0.66776433  0.95453529  0.72916894    -0.01600
Br2840     Br  0.61819438  0.89867459  0.69806265    -0.01600
C2841       C  0.51559199  0.87945282  0.59506093    -0.02700
C2842       C  0.54136160  0.88808167  0.60760257     0.07000
C2843       C  0.56446591  0.89825129  0.58965401    -0.02800
C2844       C  0.56158489  0.89873154  0.56014156    -0.02800
C2845       C  0.53546870  0.88758022  0.54779542     0.07100
C2846       C  0.51269397  0.87873985  0.56554111    -0.03000
Br2847     Br  0.97867551  0.86820004  0.54806969    -0.01600
Br2848     Br  0.98336398  0.87173135  0.61692690    -0.01600
Br2849     Br  0.59370733  0.91374911  0.53663324    -0.01600
Br2850     Br  0.60016636  0.90955932  0.60471138    -0.01600
C2851       C  0.60380836  0.56441337  0.68297804    -0.02700
C2852       C  0.58945776  0.57717766  0.69320856     0.07000
C2853       C  0.59867344  0.59300764  0.71808143    -0.02800
C2854       C  0.62048963  0.59441952  0.73336314    -0.02800
C2855       C  0.63382401  0.58054769  0.72387070     0.07100
C2856       C  0.62651118  0.56705326  0.69764635    -0.03000
Br2857     Br  0.64669057  0.55112185  0.68167182    -0.01600
Br2858     Br  0.59131194  0.54081080  0.65034807    -0.01600
Br2859     Br  0.63283424  0.61650154  0.76703877    -0.01600
Br2860     Br  0.58240943  0.61378089  0.73156654    -0.01600
C2861       C  0.95623806  0.54542357  0.71936355    -0.02700
C2862       C  0.95661593  0.56953229  0.72757070     0.07000
C2863       C  0.97968344  0.59495216  0.72090113    -0.02800
C2864       C  0.00100768  0.59610886  0.70451187    -0.02800
C2865       C  0.49967519  0.57070571  0.69338479     0.07100
C2866       C  0.47710183  0.54547908  0.70055261    -0.03000
Br2867     Br  0.47583026  0.51239655  0.68860853    -0.01600
Br2868     Br  0.92791599  0.51060649  0.73259600    -0.01600
Br2869     Br  0.03174631  0.63076561  0.69413460    -0.01600
Br2870     Br  0.98282705  0.62838974  0.73452928    -0.01600
C2871       C  0.52026510  0.55048813  0.58927048    -0.02700
C2872       C  0.54342841  0.57061822  0.60375266     0.07000
C2873       C  0.56668152  0.58920448  0.58829733    -0.02800
C2874       C  0.56615915  0.58851635  0.55880853    -0.02800
C2875       C  0.54252066  0.56931078  0.54445176     0.07100
C2876       C  0.51985994  0.54993962  0.55972414    -0.03000
Br2877     Br  0.98251560  0.52582245  0.54146900    -0.01600
Br2878     Br  0.98437137  0.52455935  0.61113506    -0.01600
Br2879     Br  0.59761144  0.61508984  0.53826059    -0.01600
Br2880     Br  0.59894726  0.61704795  0.60705207    -0.01600
loop_ 
_geom_bond_atom_site_label_1 
_geom_bond_atom_site_label_2 
_geom_bond_distance 
_geom_bond_site_symmetry_2 
_ccdc_geom_bond_type 
C1            N2   1.360       .  A
C1            N6   1.358       .  A
C1          C712   1.483       .  S
N2            C3   1.358       .  A
C3            N4   1.358       .  A
C3          C705   1.475   1_455  S
N4            C5   1.359       .  A
C5            N6   1.357       .  A
C5          C692   1.495       .  S
C7            N8   1.365       .  A
C7           N12   1.365       .  A
C7          C682   1.514       .  S
N8            C9   1.364       .  A
C9           N10   1.357       .  A
C9          C662   1.485       .  S
N10          C11   1.358       .  A
C11          N12   1.365       .  A
C11         C672   1.483       .  S
C13          N14   1.359       .  A
C13          N18   1.354       .  A
C13         C652   1.484       .  S
N14          C15   1.358       .  A
C15          N16   1.354       .  A
C15         C635   1.470       .  S
N16        C1457   1.353       .  A
C17        N1456   1.353   1_455  A
C17        N1458   1.356   1_455  A
C17         C645   1.483       .  S
N18        C1457   1.352       .  A
O19         Cr37   1.986       .  S
O19          C27   1.262       .  A
O20         Cr37   2.002       .  S
O20          C21   1.262       .  A
C21         C592   1.488       .  S
C21          O22   1.265       .  A
O22         Cr38   1.986       .  S
O23         Cr38   2.000       .  S
O23          C24   1.262       .  A
C24         C612   1.488       .  S
C24          O25   1.265       .  A
O25         Cr39   1.994       .  S
O26         Cr39   2.024       .  S
O26          C27   1.270       .  A
C27         C602   1.508       .  S
O28         Cr37   2.013       .  S
O28          C36   1.262   1_545  A
O29         Cr37   1.991       .  S
O29          C30   1.264       .  A
C30         C702   1.486       .  S
C30          O31   1.264       .  A
O31         Cr38   2.002       .  S
O32         Cr38   1.988       .  S
O32          C33   1.265       .  A
C33         C655   1.478       .  S
C33          O34   1.265       .  A
O34         Cr39   2.005       .  S
O35        Cr759   1.970       .  S
O35         C756   1.256       .  A
C36        C1345   1.495       .  S
C36         O755   1.257       .  A
Cr37         O40   1.777       .  S
Cr38         O40   1.775       .  S
Cr39        O755   1.977   1_545  S
Cr39         O40   1.771       .  S
O41         Cr59   2.020       .  S
O41          C49   1.270       .  A
O42         Cr59   1.976       .  S
O42          C43   1.258       .  A
C43         C562   1.486       .  S
C43          O44   1.267       .  A
O44         Cr60   2.026       .  S
O45         Cr60   1.981       .  S
O45          C46   1.259       .  A
C46         C572   1.498       .  S
C46          O47   1.268       .  A
O47         Cr61   2.029       .  S
O48         Cr61   1.976       .  S
O48          C49   1.262       .  A
C49         C595   1.496       .  S
O50         Cr59   1.963       .  S
O50          C58   1.256       .  A
O51         Cr59   2.030       .  S
O51          C52   1.271       .  A
C52         C582   1.513       .  S
C52          O53   1.257       .  A
O53         Cr60   1.971       .  S
O54         Cr60   2.022       .  S
O54          C55   1.270       .  A
C55         C632   1.488       .  S
C55          O56   1.258       .  A
O56         Cr61   1.962       .  S
O57         Cr61   2.027       .  S
O57          C58   1.269       .  A
C58         C665   1.502       .  S
Cr59         O62   1.776       .  S
Cr60         O62   1.777       .  S
Cr61         O62   1.783       .  S
O63         Cr81   1.977       .  S
O63          C71   1.264       .  A
O64         Cr81   2.016       .  S
O64          C65   1.264       .  A
C65         C605   1.507       .  S
C65          O66   1.262       .  A
O66         Cr82   1.992       .  S
O67         Cr82   2.004       .  S
O67          C68   1.263       .  A
C68         C555   1.491       .  S
C68          O69   1.265       .  A
O69         Cr83   1.999       .  S
O70         Cr83   2.010       .  S
O70          C71   1.268       .  A
C71         C565   1.475       .  S
O72         Cr81   2.009       .  S
O72          C80   1.260       .  A
O73         Cr81   1.981       .  S
O73          C74   1.260   1_545  A
C74        C1395   1.494       .  S
C74         O795   1.269       .  A
O75        Cr802   2.019       .  S
O75         C794   1.266       .  A
O76         Cr82   1.980       .  S
O76          C77   1.263       .  A
C77         C642   1.468       .  S
C77          O78   1.261       .  A
O78         Cr83   1.986       .  S
O79         Cr83   1.971       .  S
O79          C80   1.255       .  A
C80         C695   1.490       .  S
Cr81         O84   1.780       .  S
Cr82        O795   2.024   1_545  S
Cr82         O84   1.772       .  S
Cr83         O84   1.773       .  S
C85          N86   1.362       .  A
C85          N90   1.359       .  A
C85         C545   1.487       .  S
N86          C87   1.364       .  A
C87          N88   1.363       .  A
C87         C585   1.501       .  S
N88          C89   1.363       .  A
C89          N90   1.360       .  A
C89         C622   1.511       .  S
C91          N92   1.355       .  A
C91          N96   1.359       .  A
C91         C532   1.486       .  S
N92          C93   1.363       .  A
C93          N94   1.362       .  A
C93         C522   1.484       .  S
N94          C95   1.356       .  A
C95          N96   1.365       .  A
C95         C512   1.527       .  S
C97          N98   1.366       .  A
C97         N102   1.363       .  A
C97         C502   1.502       .  S
N98          C99   1.366       .  A
C99         N100   1.358       .  A
C99         C492   1.518       .  S
N100        C101   1.354       .  A
C101        N102   1.358       .  A
C101        C485   1.482       .  S
C103        N104   1.351       .  A
C103        N108   1.351       .  A
C103        C472   1.448       .  S
N104        C105   1.351       .  A
C105        N106   1.353       .  A
C105        C462   1.453       .  S
N106        C107   1.354       .  A
C107        N108   1.353       .  A
C107        C452   1.469       .  S
O109      Cr1567   2.005       .  S
O109        C117   1.266       .  A
O110       Cr127   1.973       .  S
O110        C111   1.262       .  A
C111        C442   1.480       .  S
C111        O112   1.269       .  A
O112       Cr128   2.011       .  S
O113       Cr128   1.981       .  S
O113        C114   1.258       .  A
C114        C685   1.497       .  S
C114        O115   1.266       .  A
O115       Cr129   2.018       .  S
O116      Cr1569   1.986       .  S
O116        C117   1.263       .  A
C117        C432   1.479       .  S
O118       Cr127   1.980       .  S
O118        C126   1.260   1_455  A
O119       Cr127   2.012       .  S
O119        C120   1.262       .  A
C120        C525   1.481       .  S
C120        O121   1.256       .  A
O121       Cr128   1.977       .  S
O122       Cr128   1.991       .  S
O122        C123   1.261       .  A
C123        C475   1.450       .  S
C123        O124   1.255       .  A
O124       Cr129   1.953       .  S
O125       Cr129   2.029   1_655  S
O125        C126   1.269       .  A
C126        C495   1.497       .  S
Cr127      O1549   2.007   1_455  S
Cr127       O130   1.777       .  S
Cr128       O130   1.779       .  S
Cr129      O1556   1.988   1_455  S
Cr129       O130   1.776       .  S
O131       Cr149   1.977       .  S
O131        C139   1.262       .  A
O132      Cr1589   2.021       .  S
O132        C133   1.269       .  A
C133        C415   1.491       .  S
C133        O134   1.257       .  A
O134      Cr1590   1.971       .  S
O135       Cr150   2.001       .  S
O135        C136   1.261       .  A
C136        C715   1.474       .  S
C136        O137   1.258       .  A
O137       Cr151   1.977       .  S
O138       Cr151   2.004       .  S
O138        C139   1.265       .  A
C139        C445   1.481       .  S
O140       Cr149   2.020       .  S
O140        C148   1.264       .  A
O141       Cr149   1.974       .  S
O141        C142   1.257       .  A
C142        C482   1.485       .  S
C142        O143   1.267       .  A
O143       Cr150   2.024       .  S
O144       Cr150   1.959       .  S
O144        C145   1.260       .  A
C145        C455   1.457       .  S
C145        O146   1.260       .  A
O146       Cr151   1.983       .  S
O147       Cr151   1.965       .  S
O147        C148   1.254       .  A
C148        C425   1.483       .  S
Cr149      O1572   2.019   1_455  S
Cr149       O152   1.773       .  S
Cr150      O1574   1.977   1_455  S
Cr150       O152   1.776       .  S
Cr151       O152   1.774       .  S
O153       Cr171   2.012       .  S
O153        C161   1.265       .  A
O154       Cr171   1.975       .  S
O154        C155   1.260       .  A
C155        C435   1.480       .  S
C155        O156   1.269       .  A
O156       Cr172   2.015       .  S
O157       Cr172   1.981       .  S
O157        C158   1.257       .  A
C158        C542   1.481       .  S
C158        O159   1.265       .  A
O159       Cr173   2.014       .  S
O160       Cr173   1.975       .  S
O160        C161   1.259       .  A
C161        C412   1.487       .  S
O162       Cr171   1.974       .  S
O162        C170   1.259       .  A
O163       Cr171   2.019       .  S
O163        C164   1.265       .  A
C164        C405   1.491       .  S
C164        O165   1.256       .  A
O165       Cr172   1.976       .  S
O166       Cr172   2.006       .  S
O166        C167   1.265       .  A
C167        C465   1.455       .  S
C167        O168   1.254       .  A
O168       Cr173   1.947       .  S
O169       Cr173   2.035       .  S
O169        C170   1.271       .  A
C170        C515   1.497       .  S
Cr171       O174   1.769       .  S
Cr172       O174   1.774       .  S
Cr173       O174   1.773       .  S
C175        N176   1.356       .  A
C175        N180   1.362       .  A
C175        C395   1.495       .  S
N176        C177   1.357       .  A
C177        N178   1.362       .  A
C177        C402   1.497       .  S
N178        C179   1.365       .  A
C179        N180   1.365       .  A
C179        C422   1.487       .  S
C181        N182   1.367       .  A
C181        N186   1.354       .  A
C181        C615   1.503       .  S
N182        C183   1.368   1_556  A
C183        N184   1.360       .  A
C183        C382   1.517       .  S
N184        C185   1.356       .  A
C185        N186   1.351   1_554  A
C185       C1092   1.476       .  S
C187        N188   1.363       .  A
C187        N192   1.355       .  A
C187        C575   1.506       .  S
N188        C189   1.366   1_556  A
C189        N190   1.357       .  A
C189        C362   1.520       .  S
N190        C191   1.359       .  A
C191        N192   1.360   1_554  A
C191        C355   1.488       .  S
C193        N194   1.356       .  A
C193        N198   1.358       .  A
C193        C322   1.466       .  S
N194        C195   1.356       .  A
C195        N196   1.353       .  A
C195        C332   1.469       .  S
N196        C197   1.354       .  A
C197        N198   1.357       .  A
C197        C342   1.462       .  S
O199       Cr217   2.022       .  S
O199        C207   1.269       .  A
O200       Cr217   1.973       .  S
O200        C201   1.261       .  A
C201        C305   1.487       .  S
C201        O202   1.270       .  A
O202      Cr1658   2.026   1_455  S
O203      Cr1658   1.982   1_455  S
O203        C204   1.256       .  A
C204        C505   1.492       .  S
C204        O205   1.264       .  A
O205      Cr1659   2.020       .  S
O206      Cr1659   1.972       .  S
O206        C207   1.259       .  A
C207        C312   1.489       .  S
O208       Cr217   1.979   1_655  S
O208       C1656   1.259       .  A
O209       Cr217   2.009   1_655  S
O209       C1650   1.264       .  A
C210        C385   1.520       .  S
C210        O211   1.254       .  A
C210       O1649   1.268       .  A
O211       Cr218   1.966       .  S
O212       Cr218   2.021       .  S
O212        C213   1.271       .  A
C213        C345   1.460       .  S
C213        O214   1.255       .  A
O214       Cr219   1.939       .  S
O215       Cr219   2.028       .  S
O215        C216   1.266       .  A
C216        C365   1.495       .  S
C216       O1648   1.259       .  A
Cr217       O220   1.769       .  S
Cr218      O1642   2.009       .  S
Cr218      O1643   1.986       .  S
Cr218      O1660   1.775       .  S
Cr219      O1645   2.018       .  S
Cr219      O1646   1.965       .  S
Cr219      O1660   1.777       .  S
O220      Cr1658   1.773   1_455  S
O220      Cr1659   1.775       .  S
O221       Cr239   2.011       .  S
O221        C229   1.264       .  A
O222       Cr239   1.953       .  S
O222        C223   1.250       .  A
C223        C315   1.502       .  S
C223        O224   1.267       .  A
O224       Cr240   2.028       .  S
O225       Cr240   1.986       .  S
O225        C226   1.264       .  A
C226        C535   1.494       .  S
C226        O227   1.266       .  A
O227       Cr241   2.007       .  S
O228       Cr241   1.985       .  S
O228        C229   1.262       .  A
C229        C285   1.505       .  S
O230       Cr239   1.953       .  S
O230        C238   1.253       .  A
O231       Cr239   2.029       .  S
O231        C232   1.270       .  A
C232        C292   1.506       .  S
C232        O233   1.256       .  A
O233       Cr240   1.972       .  S
O234       Cr240   2.003       .  S
O234        C235   1.264       .  A
C235       C1055   1.498       .  S
C235        O236   1.260       .  A
O236       Cr241   1.970       .  S
O237       Cr241   2.019       .  S
O237        C238   1.269       .  A
C238        C375   1.502       .  S
Cr239       O242   1.770       .  S
Cr240       O242   1.779       .  S
Cr241       O242   1.772       .  S
O243       Cr261   2.027       .  S
O243        C251   1.270       .  A
O244       Cr261   1.985       .  S
O244        C245   1.264       .  A
C245        C282   1.488       .  S
C245        O246   1.269       .  A
O246       Cr262   2.018       .  S
O247       Cr262   1.974       .  S
O247        C248   1.256       .  A
C248        C392   1.479       .  S
C248        O249   1.263       .  A
O249       Cr263   2.006       .  S
O250       Cr263   1.983       .  S
O250        C251   1.262       .  A
C251        C302   1.486       .  S
O252       Cr261   1.988       .  S
O252        C260   1.261       .  A
O253       Cr261   2.020       .  S
O253        C254   1.266       .  A
C254        C352   1.488       .  S
C254        O255   1.257       .  A
O255       Cr262   1.979       .  S
O256       Cr262   2.008       .  S
O256        C257   1.267       .  A
C257        C325   1.473       .  S
C257        O258   1.262       .  A
O258       Cr263   1.978       .  S
O259       Cr263   2.018       .  S
O259        C260   1.263       .  A
C260        C272   1.506       .  S
Cr261       O264   1.777       .  S
Cr262       O264   1.780       .  S
Cr263       O264   1.780       .  S
C265        N266   1.363       .  A
C265        N270   1.360       .  A
C265        C552   1.497       .  S
N266        C267   1.364   1_556  A
C267        N268   1.364       .  A
C267       C1015   1.493       .  S
N268        C269   1.361       .  A
C269        N270   1.358   1_554  A
C269        C275   1.519       .  S
C271        C272   1.417       .  A
C271        C276   1.419       .  A
C271       Br278   1.936       .  S
C272        C273   1.409       .  A
C273        C274   1.412       .  A
C273       Br280   1.937       .  S
C274        C275   1.428       .  A
C274       Br279   1.937   1_554  S
C275        C276   1.428       .  A
C276       Br277   1.938       .  S
C281        C282   1.408       .  A
C281        C286   1.416       .  A
C281       Br288   1.932       .  S
C282        C283   1.408       .  A
C283        C284   1.410       .  A
C283       Br290   1.929       .  S
C284        C285   1.419       .  A
C284       Br289   1.931       .  S
C285        C286   1.423       .  A
C286       Br287   1.932       .  S
C291        C292   1.417       .  A
C291        C296   1.418       .  A
C291       Br298   1.931       .  S
C292        C293   1.423       .  A
C293        C294   1.410       .  A
C293       Br300   1.929       .  S
C294        C295   1.409       .  A
C294      Br1019   1.938       .  S
C295        C987   1.494       .  S
C295        C296   1.414       .  A
C296       Br297   1.930   1_554  S
Br299      C1014   1.936       .  S
C301        C302   1.411       .  A
C301        C306   1.416       .  A
C301       Br308   1.930       .  S
C302        C303   1.408       .  A
C303        C304   1.408       .  A
C303       Br310   1.922       .  S
C304        C305   1.411       .  A
C304       Br309   1.933       .  S
C305        C306   1.413       .  A
C306       Br307   1.925       .  S
C311        C312   1.411       .  A
C311        C316   1.408       .  A
C311       Br318   1.940       .  S
C312        C313   1.415       .  A
C313        C314   1.412       .  A
C313       Br320   1.937       .  S
C314        C315   1.421       .  A
C314       Br319   1.937       .  S
C315        C316   1.428       .  A
C316       Br317   1.945       .  S
C321        C322   1.406       .  A
C321        C326   1.407       .  A
C321       Br328   1.929       .  S
C322        C323   1.407       .  A
C323        C324   1.403       .  A
C323       Br330   1.931       .  S
C324        C325   1.408       .  A
C324       Br329   1.925       .  S
C325        C326   1.411       .  A
C326       Br327   1.927       .  S
C331        C332   1.400       .  A
C331        C336   1.406       .  A
C331       Br338   1.931       .  S
C332        C333   1.406       .  A
C333        C334   1.405       .  A
C333       Br340   1.935       .  S
C334        C335   1.424       .  A
C334       Br339   1.938       .  S
C335        C955   1.492   1_545  S
C335        C336   1.422       .  A
C336      Br1057   1.931       .  S
Br337      C1056   1.938       .  S
C341        C342   1.407       .  A
C341        C346   1.400       .  A
C341       Br348   1.928       .  S
C342        C343   1.405       .  A
C343        C344   1.404       .  A
C343       Br350   1.926       .  S
C344        C345   1.407       .  A
C344       Br349   1.928       .  S
C345        C346   1.410       .  A
C346       Br347   1.937       .  S
C351        C352   1.410       .  A
C351        C356   1.409       .  A
C351       Br358   1.917       .  S
C352        C353   1.410       .  A
C353        C354   1.414       .  A
C353       Br360   1.930       .  S
C354        C355   1.415       .  A
C354       Br359   1.929       .  S
C355        C356   1.413       .  A
C356       Br357   1.935       .  S
C361        C362   1.433       .  A
C361        C366   1.416       .  A
C361       Br368   1.939       .  S
C362        C363   1.426       .  A
C363        C364   1.414       .  A
C363       Br370   1.936   1_554  S
C364        C365   1.408       .  A
C364      Br1809   1.934       .  S
C365        C366   1.410       .  A
C366       Br367   1.933       .  S
Br369      C1804   1.936       .  S
C371        C372   1.405       .  A
C371        C376   1.410       .  A
C371      Br1098   1.932       .  S
C372        C905   1.475       .  S
C372        C373   1.405       .  A
C373        C374   1.407       .  A
C373      Br1100   1.939   1_554  S
C374        C375   1.429       .  A
C374       Br379   1.939       .  S
C375        C376   1.423       .  A
C376       Br377   1.934       .  S
Br378      C1091   1.930       .  S
Br380      C1093   1.937       .  S
C381        C382   1.424       .  A
C381        C386   1.415       .  A
C381       Br388   1.944       .  S
C382        C383   1.421       .  A
C383        C384   1.421       .  A
C383       Br390   1.936   1_554  S
C384        C385   1.423       .  A
C384      Br1829   1.935       .  S
C385        C386   1.427       .  A
C386       Br387   1.945       .  S
Br389      C1824   1.935   1_455  S
C391        C392   1.405       .  A
C391        C396   1.410       .  A
C391       Br398   1.932       .  S
C392        C393   1.410       .  A
C393        C394   1.409       .  A
C393       Br400   1.932       .  S
C394        C395   1.418       .  A
C394       Br399   1.934       .  S
C395        C396   1.417       .  A
C396       Br397   1.920       .  S
C401        C402   1.417       .  A
C401        C406   1.413       .  A
C401       Br408   1.923       .  S
C402        C403   1.416       .  A
C403        C404   1.409       .  A
C403       Br410   1.938       .  S
C404        C405   1.412       .  A
C404       Br409   1.922       .  S
C405        C406   1.412       .  A
C406       Br407   1.934       .  S
C411        C412   1.414       .  A
C411       C1136   1.410       .  A
C411       Br418   1.937       .  S
C412        C413   1.416       .  A
C413        C414   1.407       .  A
C413       Br420   1.936       .  S
C414       C1135   1.416       .  A
C414       Br419   1.934       .  S
C415        C416   1.419       .  A
C415       C1134   1.414   1_545  A
C416       C1131   1.412   1_545  A
C416       Br417   1.936       .  S
C421        C422   1.412       .  A
C421        C426   1.411       .  A
C421       Br428   1.922       .  S
C422        C423   1.409       .  A
C423        C424   1.405       .  A
C423       Br430   1.923       .  S
C424        C425   1.409       .  A
C424       Br429   1.921       .  S
C425        C426   1.410       .  A
C426       Br427   1.930       .  S
C431        C432   1.412       .  A
C431        C436   1.409       .  A
C431       Br438   1.930       .  S
C432        C433   1.411       .  A
C433        C434   1.410       .  A
C433       Br440   1.933       .  S
C434        C435   1.413       .  A
C434       Br439   1.930       .  S
C435        C436   1.408       .  A
C436       Br437   1.929       .  S
C441        C442   1.410       .  A
C441       C1166   1.406       .  A
C441       Br448   1.931       .  S
C442        C443   1.411       .  A
C443        C444   1.410       .  A
C443       Br450   1.931       .  S
C444       C1165   1.412       .  A
C444       Br449   1.929       .  S
C445        C446   1.414       .  A
C445       C1164   1.411   1_545  A
C446       C1161   1.406   1_545  A
C446       Br447   1.929       .  S
C451        C452   1.414       .  A
C451        C456   1.401       .  A
C451       Br458   1.933       .  S
C452        C453   1.417       .  A
C453        C454   1.399       .  A
C453       Br460   1.935       .  S
C454        C455   1.406       .  A
C454       Br459   1.934       .  S
C455        C456   1.405       .  A
C456       Br457   1.934       .  S
C461        C462   1.403       .  A
C461        C466   1.404       .  A
C461       Br468   1.927       .  S
C462        C463   1.407       .  A
C463        C464   1.395       .  A
C463       Br470   1.931       .  S
C464        C465   1.406       .  A
C464       Br469   1.932       .  S
C465        C466   1.408       .  A
C466       Br467   1.925       .  S
C471        C472   1.404       .  A
C471        C476   1.399       .  A
C471       Br478   1.929       .  S
C472        C473   1.406       .  A
C473        C474   1.396       .  A
C473       Br480   1.931       .  S
C474        C475   1.406       .  A
C474       Br479   1.927       .  S
C475        C476   1.405       .  A
C476       Br477   1.928       .  S
C481        C486   1.414       .  A
C481       C1922   1.412       .  A
C481       Br488   1.928       .  S
C482        C483   1.413       .  A
C482       C1921   1.410   1_455  A
C483        C484   1.407       .  A
C483       Br490   1.927       .  S
C484       C1925   1.407       .  A
C484       Br489   1.932       .  S
C485        C486   1.411       .  A
C485       C1924   1.407       .  A
C486       Br487   1.928       .  S
C491        C496   1.415       .  A
C491       C1932   1.424       .  A
C491       Br498   1.934       .  S
C492        C493   1.431       .  A
C492       C1931   1.425       .  A
C493        C494   1.415       .  A
C493       Br500   1.942       .  S
C494       C1935   1.411       .  A
C494       Br499   1.933       .  S
C495        C496   1.411       .  A
C495       C1934   1.411       .  A
C496       Br497   1.932       .  S
C501        C502   1.419       .  A
C501        C506   1.412       .  A
C501       Br508   1.934       .  S
C502       C1943   1.419       .  A
C503        C504   1.416       .  A
C503       C1942   1.419       .  A
C503       Br510   1.932       .  S
C504        C505   1.411       .  A
C504       Br509   1.930       .  S
C505       C1946   1.414       .  A
C506       C1945   1.412       .  A
C506       Br507   1.935       .  S
C511        C512   1.435       .  A
C511        C516   1.417       .  A
C511       Br518   1.940       .  S
C512        C513   1.433       .  A
C513        C514   1.415       .  A
C513       Br520   1.940       .  S
C514        C515   1.408       .  A
C514       Br519   1.939       .  S
C515        C516   1.409       .  A
C516       Br517   1.931       .  S
C521        C522   1.414       .  A
C521        C526   1.410       .  A
C521       Br528   1.929       .  S
C522        C523   1.413       .  A
C523        C524   1.410       .  A
C523       Br530   1.928       .  S
C524        C525   1.410       .  A
C524       Br529   1.927       .  S
C525        C526   1.408       .  A
C526       Br527   1.931       .  S
C531        C532   1.406       .  A
C531        C536   1.408       .  A
C531       Br538   1.935       .  S
C532        C533   1.409       .  A
C533        C534   1.414       .  A
C533       Br540   1.926       .  S
C534        C535   1.415       .  A
C534       Br539   1.930       .  S
C535        C536   1.421       .  A
C536       Br537   1.933       .  S
C541        C542   1.408       .  A
C541        C546   1.414       .  A
C541       Br548   1.927       .  S
C542        C543   1.409       .  A
C543        C544   1.405       .  A
C543       Br550   1.929       .  S
C544        C545   1.408       .  A
C544       Br549   1.922       .  S
C545        C546   1.415       .  A
C546       Br547   1.928       .  S
C551        C552   1.414       .  A
C551        C556   1.410       .  A
C551       Br558   1.936       .  S
C552        C553   1.418       .  A
C553        C554   1.418       .  A
C553       Br560   1.930       .  S
C554        C555   1.410       .  A
C554       Br559   1.928       .  S
C555        C556   1.412       .  A
C556       Br557   1.928       .  S
C561        C562   1.408       .  A
C561        C566   1.405       .  A
C561       Br568   1.911       .  S
C562        C563   1.410       .  A
C563        C564   1.413       .  A
C563       Br570   1.920       .  S
C564        C565   1.411       .  A
C564       Br569   1.930       .  S
C565        C566   1.405       .  A
C566       Br567   1.933       .  S
C571        C572   1.413       .  A
C571        C576   1.415       .  A
C571       Br578   1.926       .  S
C572        C573   1.417       .  A
C573        C574   1.413       .  A
C573       Br580   1.939       .  S
C574        C575   1.420       .  A
C574       Br579   1.937       .  S
C575        C576   1.419       .  A
C576       Br577   1.934       .  S
C581        C582   1.429       .  A
C581        C586   1.416       .  A
C581       Br588   1.934       .  S
C582        C583   1.419       .  A
C583        C584   1.412       .  A
C583       Br590   1.931       .  S
C584        C585   1.411       .  A
C584       Br589   1.922       .  S
C585        C586   1.412       .  A
C586       Br587   1.936       .  S
C591        C592   1.404       .  A
C591        C596   1.402       .  A
C591       Br598   1.936       .  S
C592        C593   1.416       .  A
C593        C594   1.416       .  A
C593       Br600   1.928       .  S
C594        C595   1.418       .  A
C594       Br599   1.934       .  S
C595        C596   1.416       .  A
C596       Br597   1.918       .  S
C601        C602   1.421       .  A
C601        C606   1.417       .  A
C601       Br608   1.939       .  S
C602        C603   1.419       .  A
C603        C604   1.413       .  A
C603       Br610   1.935       .  S
C604        C605   1.417       .  A
C604       Br609   1.936   1_545  S
C605        C606   1.422       .  A
C606       Br607   1.939       .  S
C611        C612   1.412       .  A
C611        C616   1.414       .  A
C611       Br618   1.929       .  S
C612        C613   1.410       .  A
C613        C614   1.410       .  A
C613       Br620   1.936   1_545  S
C614        C615   1.425       .  A
C614       Br619   1.940   1_545  S
C615        C616   1.420       .  A
C616       Br617   1.934       .  S
C621        C622   1.426       .  A
C621        C626   1.413       .  A
C621       Br628   1.932       .  S
C622        C623   1.421       .  A
C623        C624   1.413       .  A
C623       Br630   1.936       .  S
C624        C625   1.415       .  A
C624       Br629   1.937       .  S
C625        C756   1.496       .  S
C625        C626   1.413       .  A
C626      Br1347   1.938       .  S
Br627      C1346   1.938   1_545  S
C631        C632   1.416       .  A
C631        C636   1.403       .  A
C631       Br638   1.928       .  S
C632        C633   1.416       .  A
C633        C634   1.408       .  A
C633       Br640   1.922       .  S
C634        C635   1.403       .  A
C634       Br639   1.930       .  S
C635        C636   1.409       .  A
C636       Br637   1.938       .  S
C641        C646   1.408       .  A
C641       C1362   1.407       .  A
C641       Br648   1.933       .  S
C642        C643   1.408       .  A
C642       C1361   1.407   1_545  A
C643        C644   1.402       .  A
C643       Br650   1.927       .  S
C644       C1365   1.418   1_545  A
C644       Br649   1.940       .  S
C645        C646   1.417       .  A
C645       C1364   1.419       .  A
C646       Br647   1.933       .  S
C651        C652   1.417       .  A
C651       C1376   1.408       .  A
C651      Br1378   1.932       .  S
C652        C653   1.418       .  A
C653        C654   1.405       .  A
C653       Br660   1.939       .  S
C654       C1375   1.408       .  A
C654       Br659   1.925       .  S
C655        C656   1.408       .  A
C655       C1374   1.408   1_545  A
C656       C1371   1.410   1_545  A
C656       Br657   1.930       .  S
Br658      C1371   1.931   1_545  S
C661        C662   1.408       .  A
C661       C2106   1.417   1_455  A
C661       Br668   1.929       .  S
C662       C2103   1.404   1_455  A
C663        C664   1.404       .  A
C663       C2102   1.402       .  A
C663       Br670   1.934       .  S
C664        C665   1.424       .  A
C664       Br669   1.932       .  S
C665        C666   1.421       .  A
C666       C2101   1.417       .  A
C666       Br667   1.931       .  S
C671        C672   1.406       .  A
C671        C676   1.408       .  A
C671       Br678   1.931       .  S
C672        C673   1.411       .  A
C673        C674   1.416       .  A
C673       Br680   1.928       .  S
C674        C675   1.414       .  A
C674       Br679   1.930       .  S
C675        C794   1.491       .  S
C675        C676   1.414       .  A
C676       Br677   1.926       .  S
C681        C682   1.423       .  A
C681        C686   1.413       .  A
C681      Br2128   1.923   1_455  S
C682        C683   1.422       .  A
C683        C684   1.419       .  A
C683       Br690   1.935       .  S
C684        C685   1.416       .  A
C684       Br689   1.933       .  S
C685        C686   1.405       .  A
C686      Br2127   1.933   1_455  S
Br687      C2126   1.931       .  S
Br688      C2121   1.922       .  S
C691        C692   1.419       .  A
C691        C696   1.411       .  A
C691       Br698   1.938       .  S
C692        C693   1.418       .  A
C693        C694   1.409       .  A
C693       Br700   1.934       .  S
C694        C695   1.412       .  A
C694       Br699   1.937       .  S
C695        C696   1.415       .  A
C696       Br697   1.934       .  S
C701        C702   1.414       .  A
C701       C2146   1.407       .  A
C701       Br708   1.926       .  S
C702        C703   1.417       .  A
C703        C704   1.410       .  A
C703       Br710   1.927       .  S
C704       C2145   1.406       .  A
C704       Br709   1.931       .  S
C705        C706   1.405       .  A
C705       C2144   1.407   1_655  A
C706       C2141   1.408       .  A
C706       Br707   1.930       .  S
C711        C712   1.415       .  A
C711        C716   1.409       .  A
C711      Br2158   1.928   1_455  S
C712        C713   1.413       .  A
C713        C714   1.406       .  A
C713       Br720   1.936       .  S
C714        C715   1.411       .  A
C714       Br719   1.929       .  S
C715        C716   1.405       .  A
C716      Br2157   1.929   1_455  S
Br717      C2156   1.931       .  S
Br718      C2151   1.932       .  S
C721        N722   1.361       .  A
C721        N726   1.357       .  A
C721       C1432   1.492       .  S
N722        C723   1.361       .  A
C723        N724   1.359       .  A
C723       C1425   1.476   1_455  S
N724        C725   1.359       .  A
C725        N726   1.356       .  A
C725       C1412   1.490       .  S
C727        N728   1.363       .  A
C727        N732   1.365       .  A
C727       C1402   1.505       .  S
N728        C729   1.361       .  A
C729        N730   1.356       .  A
C729       C1382   1.477       .  S
N730        C731   1.356       .  A
C731        N732   1.364       .  A
C731       C1392   1.482       .  S
C733        N734   1.360       .  A
C733        N738   1.357       .  A
C733       C1372   1.485       .  S
N734        C735   1.358       .  A
C735        N736   1.353       .  A
C735       C1355   1.473       .  S
N736       C2177   1.353       .  A
C737       N2176   1.354   1_455  A
C737       N2178   1.354   1_455  A
C737       C1365   1.477       .  S
N738       C2177   1.356       .  A
O739       Cr757   1.975       .  S
O739        C747   1.258       .  A
O740       Cr757   2.010       .  S
O740        C741   1.265       .  A
C741       C1312   1.493       .  S
C741        O742   1.264       .  A
O742       Cr758   1.987       .  S
O743       Cr758   1.996       .  S
O743        C744   1.262       .  A
C744       C1332   1.477       .  S
C744        O745   1.261       .  A
O745       Cr759   1.983       .  S
O746       Cr759   2.015       .  S
O746        C747   1.266       .  A
C747       C1322   1.499       .  S
O748       Cr757   2.022       .  S
O748        C756   1.266       .  A
O749       Cr757   1.985       .  S
O749        C750   1.263       .  A
C750       C1422   1.486       .  S
C750        O751   1.264       .  A
O751       Cr758   2.002       .  S
O752       Cr758   1.982       .  S
O752        C753   1.264       .  A
C753       C1375   1.475       .  S
C753        O754   1.266       .  A
O754       Cr759   2.006       .  S
Cr757       O760   1.768       .  S
Cr758       O760   1.770       .  S
Cr759       O760   1.767       .  S
O761       Cr779   2.024       .  S
O761        C769   1.270       .  A
O762       Cr779   1.980       .  S
O762        C763   1.259       .  A
C763       C1282   1.486       .  S
C763        O764   1.267       .  A
O764       Cr780   2.025       .  S
O765       Cr780   1.978       .  S
O765        C766   1.258       .  A
C766       C1292   1.498       .  S
C766        O767   1.269       .  A
O767       Cr781   2.031       .  S
O768       Cr781   1.985       .  S
O768        C769   1.263       .  A
C769       C1315   1.502       .  S
O770       Cr779   1.970       .  S
O770        C778   1.257       .  A
O771       Cr779   2.030       .  S
O771        C772   1.270       .  A
C772       C1302   1.517       .  S
C772        O773   1.257       .  A
O773       Cr780   1.973       .  S
O774       Cr780   2.022       .  S
O774        C775   1.269       .  A
C775       C1352   1.492       .  S
C775        O776   1.258       .  A
O776       Cr781   1.963       .  S
O777       Cr781   2.035       .  S
O777        C778   1.272       .  A
C778       C1385   1.507       .  S
Cr779       O782   1.778       .  S
Cr780       O782   1.780       .  S
Cr781       O782   1.784       .  S
O783       Cr801   1.989       .  S
O783        C791   1.265       .  A
O784       Cr801   2.008       .  S
O784        C785   1.263       .  A
C785       C1325   1.494       .  S
C785        O786   1.261       .  A
O786       Cr802   1.985       .  S
O787       Cr802   2.001       .  S
O787        C788   1.261       .  A
C788       C1275   1.487       .  S
C788        O789   1.264       .  A
O789       Cr803   2.000       .  S
O790       Cr803   2.007       .  S
O790        C791   1.266       .  A
C791       C1285   1.479       .  S
O792       Cr801   2.007       .  S
O792        C800   1.260       .  A
O793       Cr801   1.986       .  S
O793        C794   1.261       .  A
O796       Cr802   1.981       .  S
O796        C797   1.263       .  A
C797       C1362   1.472       .  S
C797        O798   1.263       .  A
O798       Cr803   1.988       .  S
O799       Cr803   1.972       .  S
O799        C800   1.256       .  A
C800       C1415   1.486       .  S
Cr801       O804   1.780       .  S
Cr802       O804   1.778       .  S
Cr803       O804   1.773       .  S
C805        N806   1.360       .  A
C805        N810   1.360       .  A
C805       C1265   1.483       .  S
N806        C807   1.362       .  A
C807        N808   1.363       .  A
C807       C1305   1.504       .  S
N808        C809   1.363       .  A
C809        N810   1.361       .  A
C809       C1342   1.511       .  S
C811        N812   1.355       .  A
C811        N816   1.360       .  A
C811       C1252   1.478       .  S
N812        C813   1.360       .  A
C813        N814   1.356       .  A
C813       C1242   1.475       .  S
N814        C815   1.352       .  A
C815        N816   1.362       .  A
C815       C1232   1.513       .  S
C817        N818   1.363       .  A
C817        N822   1.362       .  A
C817       C1222   1.500       .  S
N818        C819   1.362       .  A
C819        N820   1.361       .  A
C819       C1212   1.518       .  S
N820        C821   1.360       .  A
C821        N822   1.359       .  A
C821       C1205   1.483       .  S
C823        N824   1.351       .  A
C823        N828   1.351       .  A
C823       C1192   1.447       .  S
N824        C825   1.349       .  A
C825        N826   1.352       .  A
C825       C1182   1.451       .  S
N826        C827   1.354       .  A
C827        N828   1.354       .  A
C827       C1172   1.470       .  S
O829      Cr2287   2.007       .  S
O829        C837   1.266       .  A
O830       Cr847   1.965       .  S
O830        C831   1.259       .  A
C831       C1162   1.479       .  S
C831        O832   1.269       .  A
O832       Cr848   2.013       .  S
O833       Cr848   1.977       .  S
O833        C834   1.257       .  A
C834       C1405   1.492       .  S
C834        O835   1.266       .  A
O835       Cr849   2.021       .  S
O836      Cr2289   1.987       .  S
O836        C837   1.265       .  A
C837       C1152   1.481       .  S
O838       Cr847   1.977       .  S
O838        C846   1.259       .  A
O839       Cr847   2.012       .  S
O839        C840   1.263       .  A
C840       C1245   1.475       .  S
C840        O841   1.254       .  A
O841       Cr848   1.966       .  S
O842       Cr848   1.998       .  S
O842        C843   1.265       .  A
C843       C1195   1.455       .  S
C843        O844   1.256       .  A
O844       Cr849   1.953       .  S
O845       Cr849   2.029   1_655  S
O845        C846   1.268   1_655  A
C846       C1215   1.498   1_455  S
Cr847      O2269   2.007   1_455  S
Cr847       O850   1.771       .  S
Cr848       O850   1.774       .  S
Cr849      O2276   1.978   1_455  S
Cr849       O850   1.770       .  S
O851       Cr869   1.985       .  S
O851        C859   1.263       .  A
O852      Cr2309   2.017       .  S
O852        C853   1.267       .  A
C853       C1135   1.491       .  S
C853        O854   1.257       .  A
O854      Cr2310   1.973       .  S
O855       Cr870   2.001       .  S
O855        C856   1.260       .  A
C856       C1435   1.479       .  S
C856        O857   1.258       .  A
O857       Cr871   1.981       .  S
O858       Cr871   2.004       .  S
O858        C859   1.265       .  A
C859       C1165   1.485       .  S
O860       Cr869   2.018       .  S
O860        C868   1.265       .  A
O861       Cr869   1.979       .  S
O861        C862   1.257       .  A
C862       C1202   1.486       .  S
C862        O863   1.265       .  A
O863       Cr870   2.021       .  S
O864       Cr870   1.957       .  S
O864        C865   1.260       .  A
C865       C1175   1.457       .  S
C865        O866   1.262       .  A
O866       Cr871   1.990       .  S
O867       Cr871   1.975       .  S
O867        C868   1.257       .  A
C868       C1145   1.490       .  S
Cr869      O2292   2.017   1_455  S
Cr869       O872   1.775       .  S
Cr870      O2294   1.966   1_455  S
Cr870       O872   1.777       .  S
Cr871       O872   1.774       .  S
O873       Cr891   2.007       .  S
O873        C881   1.263       .  A
O874       Cr891   1.973       .  S
O874        C875   1.261       .  A
C875       C1155   1.479       .  S
C875        O876   1.270       .  A
O876       Cr892   2.017       .  S
O877       Cr892   1.986       .  S
O877        C878   1.259       .  A
C878       C1262   1.479       .  S
C878        O879   1.263       .  A
O879       Cr893   2.004       .  S
O880       Cr893   1.984       .  S
O880        C881   1.262       .  A
C881       C1132   1.488       .  S
O882       Cr891   1.966       .  S
O882        C890   1.258       .  A
O883       Cr891   2.011       .  S
O883        C884   1.262       .  A
C884       C1125   1.484       .  S
C884        O885   1.256       .  A
O885       Cr892   1.975       .  S
O886       Cr892   2.003       .  S
O886        C887   1.265       .  A
C887       C1185   1.456       .  S
C887        O888   1.254       .  A
O888       Cr893   1.950       .  S
O889       Cr893   2.024       .  S
O889        C890   1.268       .  A
C890       C1235   1.482       .  S
Cr891       O894   1.769       .  S
Cr892       O894   1.774       .  S
Cr893       O894   1.774       .  S
C895        N896   1.358       .  A
C895        N900   1.363       .  A
C895       C1115   1.509       .  S
N896        C897   1.358       .  A
C897        N898   1.363       .  A
C897       C1122   1.494       .  S
N898        C899   1.363       .  A
C899        N900   1.365       .  A
C899       C1142   1.489       .  S
C901        N902   1.363       .  A
C901        N906   1.353       .  A
C901       C1335   1.500       .  S
N902        C903   1.362   1_556  A
C903        N904   1.360       .  A
C903       C1102   1.498       .  S
N904        C905   1.355       .  A
C905        N906   1.351   1_554  A
C907        N908   1.367       .  A
C907        N912   1.360       .  A
C907       C1295   1.506       .  S
N908        C909   1.367   1_556  A
C909        N910   1.356       .  A
C909       C1082   1.525       .  S
N910        C911   1.358       .  A
C911        N912   1.359   1_554  A
C911       C1075   1.483       .  S
C913        N914   1.353       .  A
C913        N918   1.357       .  A
C913       C1042   1.464       .  S
N914        C915   1.355       .  A
C915        N916   1.357       .  A
C915       C1052   1.476       .  S
N916        C917   1.358       .  A
C917        N918   1.357       .  A
C917       C1062   1.470       .  S
O919       Cr937   2.031       .  S
O919        C927   1.274       .  A
O920       Cr937   1.975       .  S
O920        C921   1.261       .  A
C921       C1025   1.480       .  S
C921        O922   1.267       .  A
O922      Cr2378   2.014   1_455  S
O923      Cr2378   1.986   1_455  S
O923        C924   1.256       .  A
C924       C1225   1.492       .  S
C924        O925   1.262       .  A
O925      Cr2379   2.015       .  S
O926      Cr2379   1.968       .  S
O926        C927   1.261       .  A
C927       C1032   1.493       .  S
O928       Cr937   1.983   1_655  S
O928       C2376   1.258       .  A
O929       Cr937   2.019   1_655  S
O929       C2370   1.266       .  A
C930       C1105   1.507       .  S
C930       O2369   1.265       .  A
C930        O931   1.257       .  A
O931       Cr938   1.972       .  S
O932       Cr938   2.029       .  S
O932        C933   1.274       .  A
C933       C1065   1.477       .  S
C933        O934   1.260       .  A
O934       Cr939   1.961       .  S
O935       Cr939   2.033       .  S
O935        C936   1.268       .  A
C936       C1085   1.502       .  S
C936       O2368   1.258       .  A
Cr937       O940   1.771       .  S
Cr938      O2362   2.026       .  S
Cr938      O2363   1.981       .  S
Cr938      O2380   1.772       .  S
Cr939      O2365   2.019       .  S
Cr939      O2366   1.973       .  S
Cr939      O2380   1.776       .  S
O940      Cr2378   1.777   1_455  S
O940      Cr2379   1.777       .  S
O941       Cr959   2.010       .  S
O941        C949   1.265       .  A
O942       Cr959   1.955       .  S
O942        C943   1.250       .  A
C943       C1035   1.502       .  S
C943        O944   1.268       .  A
O944       Cr960   2.032       .  S
O945       Cr960   1.986       .  S
O945        C946   1.262       .  A
C946       C1255   1.488       .  S
C946        O947   1.262       .  A
O947       Cr961   1.993       .  S
O948       Cr961   1.969       .  S
O948        C949   1.257       .  A
C949       C1005   1.505       .  S
O950       Cr959   1.964       .  S
O950        C958   1.256       .  A
O951       Cr959   2.031       .  S
O951        C952   1.271       .  A
C952       C1012   1.506       .  S
C952        O953   1.257       .  A
O953       Cr960   1.971       .  S
O954       Cr960   2.016       .  S
O954        C955   1.269       .  A
C955        O956   1.258       .  A
O956       Cr961   1.960       .  S
O957       Cr961   2.007       .  S
O957        C958   1.266       .  A
C958       C1095   1.495       .  S
Cr959       O962   1.768       .  S
Cr960       O962   1.779       .  S
Cr961       O962   1.772       .  S
O963       Cr981   2.028       .  S
O963        C971   1.270       .  A
O964       Cr981   1.970       .  S
O964        C965   1.259       .  A
C965       C1002   1.488       .  S
C965        O966   1.271       .  A
O966       Cr982   2.025       .  S
O967       Cr982   1.975       .  S
O967        C968   1.256       .  A
C968       C1112   1.492       .  S
C968        O969   1.266       .  A
O969       Cr983   2.022       .  S
O970       Cr983   1.971       .  S
O970        C971   1.260       .  A
C971       C1022   1.480       .  S
O972       Cr981   1.968       .  S
O972        C980   1.254       .  A
O973       Cr981   2.024       .  S
O973        C974   1.268       .  A
C974       C1072   1.502       .  S
C974        O975   1.257       .  A
O975       Cr982   1.970       .  S
O976       Cr982   2.025       .  S
O976        C977   1.273       .  A
C977       C1045   1.479       .  S
C977        O978   1.257       .  A
O978       Cr983   1.957       .  S
O979       Cr983   2.025       .  S
O979        C980   1.268       .  A
C980        C992   1.516       .  S
Cr981       O984   1.774       .  S
Cr982       O984   1.770       .  S
Cr983       O984   1.776       .  S
C985        N986   1.364       .  A
C985        N990   1.359       .  A
C985       C1272   1.485       .  S
N986        C987   1.364   1_556  A
C987        N988   1.363       .  A
N988        C989   1.359       .  A
C989        N990   1.357   1_554  A
C989        C995   1.490       .  S
C991        C992   1.427       .  A
C991        C996   1.415       .  A
C991       Br998   1.935       .  S
C992        C993   1.433       .  A
C993        C994   1.413       .  A
C993      Br1000   1.942       .  S
C994        C995   1.408       .  A
C994       Br999   1.939   1_554  S
C995        C996   1.408       .  A
C996       Br997   1.934       .  S
C1001      C1002   1.411       .  A
C1001      C1006   1.412       .  A
C1001     Br1008   1.934       .  S
C1002      C1003   1.409       .  A
C1003      C1004   1.412       .  A
C1003     Br1010   1.932       .  S
C1004      C1005   1.426       .  A
C1004     Br1009   1.939       .  S
C1005      C1006   1.424       .  A
C1006     Br1007   1.938       .  S
C1011      C1012   1.418       .  A
C1011      C1016   1.419       .  A
C1011     Br1018   1.932       .  S
C1012      C1013   1.422   1_565  A
C1013      C1014   1.409       .  A
C1013     Br1020   1.926       .  S
C1014      C1015   1.407       .  A
C1015      C1016   1.414   1_545  A
C1016     Br1017   1.929       .  S
C1021      C1022   1.411       .  A
C1021      C1026   1.414       .  A
C1021     Br1028   1.929       .  S
C1022      C1023   1.409       .  A
C1023      C1024   1.406       .  A
C1023     Br1030   1.928       .  S
C1024      C1025   1.409       .  A
C1024     Br1029   1.932       .  S
C1025      C1026   1.412       .  A
C1026     Br1027   1.927       .  S
C1031      C1032   1.412       .  A
C1031      C1036   1.408       .  A
C1031     Br1038   1.939       .  S
C1032      C1033   1.419       .  A
C1033      C1034   1.414       .  A
C1033     Br1040   1.937       .  S
C1034      C1035   1.419       .  A
C1034     Br1039   1.936       .  S
C1035      C1036   1.426       .  A
C1036     Br1037   1.943       .  S
C1041      C1042   1.403       .  A
C1041      C1046   1.405       .  A
C1041     Br1048   1.928       .  S
C1042      C1043   1.407       .  A
C1043      C1044   1.404       .  A
C1043     Br1050   1.933       .  S
C1044      C1045   1.416       .  A
C1044     Br1049   1.931       .  S
C1045      C1046   1.412       .  A
C1046     Br1047   1.926       .  S
C1051      C1052   1.404       .  A
C1051      C1056   1.407       .  A
C1051     Br1058   1.937       .  S
C1052      C1053   1.410       .  A
C1053      C1054   1.408       .  A
C1053     Br1060   1.938       .  S
C1054      C1055   1.425       .  A
C1054     Br1059   1.941       .  S
C1055      C1056   1.426       .  A
C1061      C1062   1.410       .  A
C1061      C1066   1.405       .  A
C1061     Br1068   1.933       .  S
C1062      C1063   1.405       .  A
C1063      C1064   1.407       .  A
C1063     Br1070   1.929       .  S
C1064      C1065   1.412       .  A
C1064     Br1069   1.926       .  S
C1065      C1066   1.413       .  A
C1066     Br1067   1.933       .  S
C1071      C1072   1.422       .  A
C1071      C1076   1.408       .  A
C1071     Br1078   1.926       .  S
C1072      C1073   1.418       .  A
C1073      C1074   1.415       .  A
C1073     Br1080   1.928       .  S
C1074      C1075   1.410       .  A
C1074     Br1079   1.928       .  S
C1075      C1076   1.406       .  A
C1076     Br1077   1.936       .  S
C1081      C1082   1.432       .  A
C1081      C1086   1.418       .  A
C1081     Br1088   1.940       .  S
C1082      C1083   1.424       .  A
C1083      C1084   1.414       .  A
C1083     Br1090   1.935   1_554  S
C1084      C1085   1.414       .  A
C1084     Br2529   1.938       .  S
C1085      C1086   1.414       .  A
C1086     Br1087   1.938       .  S
Br1089     C2524   1.933       .  S
C1091      C1092   1.406   1_565  A
C1091      C1096   1.410       .  A
C1092      C1093   1.407       .  A
C1093      C1094   1.407   1_545  A
C1094      C1095   1.423       .  A
C1094     Br1099   1.935       .  S
C1095      C1096   1.420       .  A
C1096     Br1097   1.935       .  S
C1101      C1102   1.414       .  A
C1101      C1106   1.409       .  A
C1101     Br1108   1.942       .  S
C1102      C1103   1.416       .  A
C1103      C1104   1.416       .  A
C1103     Br1110   1.935   1_554  S
C1104      C1105   1.423       .  A
C1104     Br2549   1.935       .  S
C1105      C1106   1.423       .  A
C1106     Br1107   1.935       .  S
Br1109     C2544   1.935       .  S
C1111      C1112   1.407       .  A
C1111      C1116   1.414       .  A
C1111     Br1118   1.934       .  S
C1112      C1113   1.414       .  A
C1113      C1114   1.413       .  A
C1113     Br1120   1.938       .  S
C1114      C1115   1.424       .  A
C1114     Br1119   1.939       .  S
C1115      C1116   1.423       .  A
C1116     Br1117   1.926       .  S
C1121      C1122   1.415       .  A
C1121      C1126   1.408       .  A
C1121     Br1128   1.922       .  S
C1122      C1123   1.417       .  A
C1123      C1124   1.412       .  A
C1123     Br1130   1.935       .  S
C1124      C1125   1.412       .  A
C1124     Br1129   1.927       .  S
C1125      C1126   1.408       .  A
C1126     Br1127   1.934       .  S
C1131      C1132   1.414       .  A
C1131     Br1138   1.936       .  S
C1132      C1133   1.417       .  A
C1133      C1134   1.406       .  A
C1133     Br1140   1.937       .  S
C1134     Br1139   1.936       .  S
C1135      C1136   1.418       .  A
C1136     Br1137   1.936       .  S
C1141      C1142   1.413       .  A
C1141      C1146   1.414       .  A
C1141     Br1148   1.921       .  S
C1142      C1143   1.407       .  A
C1143      C1144   1.406       .  A
C1143     Br1150   1.928       .  S
C1144      C1145   1.411       .  A
C1144     Br1149   1.920       .  S
C1145      C1146   1.411       .  A
C1146     Br1147   1.929       .  S
C1151      C1152   1.413       .  A
C1151      C1156   1.410       .  A
C1151     Br1158   1.931       .  S
C1152      C1153   1.411       .  A
C1153      C1154   1.409       .  A
C1153     Br1160   1.931       .  S
C1154      C1155   1.411       .  A
C1154     Br1159   1.930       .  S
C1155      C1156   1.409       .  A
C1156     Br1157   1.930       .  S
C1161      C1162   1.411       .  A
C1161     Br1168   1.931       .  S
C1162      C1163   1.413       .  A
C1163      C1164   1.407       .  A
C1163     Br1170   1.933       .  S
C1164     Br1169   1.932   1_565  S
C1165      C1166   1.415       .  A
C1166     Br1167   1.926       .  S
C1171      C1172   1.414       .  A
C1171      C1176   1.401       .  A
C1171     Br1178   1.934       .  S
C1172      C1173   1.418       .  A
C1173      C1174   1.399       .  A
C1173     Br1180   1.937       .  S
C1174      C1175   1.406       .  A
C1174     Br1179   1.933       .  S
C1175      C1176   1.405       .  A
C1176     Br1177   1.935       .  S
C1181      C1182   1.402       .  A
C1181      C1186   1.402       .  A
C1181     Br1188   1.927       .  S
C1182      C1183   1.407       .  A
C1183      C1184   1.397       .  A
C1183     Br1190   1.934       .  S
C1184      C1185   1.408       .  A
C1184     Br1189   1.931       .  S
C1185      C1186   1.407       .  A
C1186     Br1187   1.924       .  S
C1191      C1192   1.403       .  A
C1191      C1196   1.398       .  A
C1191     Br1198   1.930       .  S
C1192      C1193   1.405       .  A
C1193      C1194   1.398       .  A
C1193     Br1200   1.934       .  S
C1194      C1195   1.409       .  A
C1194     Br1199   1.928       .  S
C1195      C1196   1.407       .  A
C1196     Br1197   1.928       .  S
C1201      C2642   1.409       .  A
C1201      C1206   1.414       .  A
C1201     Br1208   1.929       .  S
C1202      C2641   1.412   1_455  A
C1202      C1203   1.413       .  A
C1203      C1204   1.408       .  A
C1203     Br1210   1.930       .  S
C1204      C2645   1.407       .  A
C1204     Br1209   1.931       .  S
C1205      C2644   1.407       .  A
C1205      C1206   1.412       .  A
C1206     Br1207   1.924       .  S
C1211      C2652   1.425       .  A
C1211      C1216   1.414       .  A
C1211     Br1218   1.936       .  S
C1212      C2651   1.426       .  A
C1212      C1213   1.428       .  A
C1213      C1214   1.415       .  A
C1213     Br1220   1.938       .  S
C1214      C2655   1.412       .  A
C1214     Br1219   1.931       .  S
C1215      C2654   1.412       .  A
C1215      C1216   1.412       .  A
C1216     Br1217   1.935       .  S
C1221      C1222   1.418       .  A
C1221      C1226   1.411       .  A
C1221     Br1228   1.932       .  S
C1222      C2663   1.420       .  A
C1223      C2662   1.419       .  A
C1223      C1224   1.416       .  A
C1223     Br1230   1.932       .  S
C1224      C1225   1.411       .  A
C1224     Br1229   1.930       .  S
C1225      C2666   1.413       .  A
C1226      C2665   1.414       .  A
C1226     Br1227   1.937       .  S
C1231      C1232   1.434       .  A
C1231      C1236   1.412       .  A
C1231     Br1238   1.943       .  S
C1232      C1233   1.429       .  A
C1233      C1234   1.409       .  A
C1233     Br1240   1.935       .  S
C1234      C1235   1.403       .  A
C1234     Br1239   1.939       .  S
C1235      C1236   1.407       .  A
C1236     Br1237   1.932       .  S
C1241      C1242   1.412       .  A
C1241      C1246   1.407       .  A
C1241     Br1248   1.932       .  S
C1242      C1243   1.410       .  A
C1243      C1244   1.406       .  A
C1243     Br1250   1.930       .  S
C1244      C1245   1.410       .  A
C1244     Br1249   1.923       .  S
C1245      C1246   1.410       .  A
C1246     Br1247   1.931       .  S
C1251      C1252   1.405       .  A
C1251      C1256   1.403       .  A
C1251     Br1258   1.935       .  S
C1252      C1253   1.408       .  A
C1253      C1254   1.412       .  A
C1253     Br1260   1.926       .  S
C1254      C1255   1.416       .  A
C1254     Br1259   1.931       .  S
C1255      C1256   1.419       .  A
C1256     Br1257   1.934       .  S
C1261      C1262   1.408       .  A
C1261      C1266   1.413       .  A
C1261     Br1268   1.926       .  S
C1262      C1263   1.409       .  A
C1263      C1264   1.406       .  A
C1263     Br1270   1.928       .  S
C1264      C1265   1.408       .  A
C1264     Br1269   1.926       .  S
C1265      C1266   1.413       .  A
C1266     Br1267   1.926       .  S
C1271      C1272   1.409       .  A
C1271      C1276   1.407       .  A
C1271     Br1278   1.934       .  S
C1272      C1273   1.412       .  A
C1273      C1274   1.416       .  A
C1273     Br1280   1.930       .  S
C1274      C1275   1.413       .  A
C1274     Br1279   1.926       .  S
C1275      C1276   1.412       .  A
C1276     Br1277   1.926       .  S
C1281      C1282   1.406       .  A
C1281      C1286   1.407       .  A
C1281     Br1288   1.919       .  S
C1282      C1283   1.410       .  A
C1283      C1284   1.413       .  A
C1283     Br1290   1.918       .  S
C1284      C1285   1.410       .  A
C1284     Br1289   1.928       .  S
C1285      C1286   1.407       .  A
C1286     Br1287   1.924       .  S
C1291      C1292   1.412       .  A
C1291      C1296   1.415       .  A
C1291     Br1298   1.926       .  S
C1292      C1293   1.417       .  A
C1293      C1294   1.413       .  A
C1293     Br1300   1.940       .  S
C1294      C1295   1.419       .  A
C1294     Br1299   1.930       .  S
C1295      C1296   1.417       .  A
C1296     Br1297   1.931       .  S
C1301      C1302   1.428       .  A
C1301      C1306   1.416       .  A
C1301     Br1308   1.938       .  S
C1302      C1303   1.421       .  A
C1303      C1304   1.414       .  A
C1303     Br1310   1.931       .  S
C1304      C1305   1.415       .  A
C1304     Br1309   1.930       .  S
C1305      C1306   1.414       .  A
C1306     Br1307   1.937       .  S
C1311      C1312   1.408       .  A
C1311      C1316   1.407       .  A
C1311     Br1318   1.935       .  S
C1312      C1313   1.414       .  A
C1313      C1314   1.417       .  A
C1313     Br1320   1.930       .  S
C1314      C1315   1.419       .  A
C1314     Br1319   1.929       .  S
C1315      C1316   1.416       .  A
C1316     Br1317   1.920       .  S
C1321      C1322   1.422       .  A
C1321      C1326   1.411       .  A
C1321     Br1328   1.942       .  S
C1322      C1323   1.420       .  A
C1323      C1324   1.409       .  A
C1323     Br1330   1.937       .  S
C1324      C1325   1.414       .  A
C1324     Br1329   1.937       .  S
C1325      C1326   1.419       .  A
C1326     Br1327   1.939       .  S
C1331      C1332   1.408       .  A
C1331      C1336   1.410       .  A
C1331     Br1338   1.932       .  S
C1332      C1333   1.407       .  A
C1333      C1334   1.408       .  A
C1333     Br1340   1.939       .  S
C1334      C1335   1.427       .  A
C1334     Br1339   1.941       .  S
C1335      C1336   1.423       .  A
C1336     Br1337   1.936       .  S
C1341      C1342   1.426       .  A
C1341      C1346   1.415       .  A
C1341     Br1348   1.933       .  S
C1342      C1343   1.422       .  A
C1343      C1344   1.413       .  A
C1343     Br1350   1.934       .  S
C1344      C1345   1.411       .  A
C1344     Br1349   1.936       .  S
C1345      C1346   1.414       .  A
C1351      C1352   1.418       .  A
C1351      C1356   1.404       .  A
C1351     Br1358   1.931       .  S
C1352      C1353   1.418       .  A
C1353      C1354   1.409       .  A
C1353     Br1360   1.922       .  S
C1354      C1355   1.404       .  A
C1354     Br1359   1.932       .  S
C1355      C1356   1.411       .  A
C1356     Br1357   1.940       .  S
C1361      C1366   1.406       .  A
C1361     Br1368   1.932       .  S
C1362      C1363   1.409       .  A
C1363      C1364   1.403       .  A
C1363     Br1370   1.930       .  S
C1364     Br1369   1.940       .  S
C1365      C1366   1.413       .  A
C1366     Br1367   1.930       .  S
C1371      C1372   1.414       .  A
C1372      C1373   1.417       .  A
C1373      C1374   1.407       .  A
C1373     Br1380   1.937       .  S
C1374     Br1379   1.926       .  S
C1375      C1376   1.407       .  A
C1376     Br1377   1.932       .  S
C1381      C1382   1.408       .  A
C1381      C2826   1.416   1_455  A
C1381     Br1388   1.929       .  S
C1382      C2823   1.403   1_455  A
C1383      C2822   1.404       .  A
C1383      C1384   1.409       .  A
C1383     Br1390   1.933       .  S
C1384      C1385   1.424       .  A
C1384     Br1389   1.929       .  S
C1385      C1386   1.420       .  A
C1386      C2821   1.418       .  A
C1386     Br1387   1.927       .  S
C1391      C1392   1.406       .  A
C1391      C1396   1.410       .  A
C1391     Br1398   1.932       .  S
C1392      C1393   1.409       .  A
C1393      C1394   1.414       .  A
C1393     Br1400   1.929       .  S
C1394      C1395   1.414       .  A
C1394     Br1399   1.929       .  S
C1395      C1396   1.417       .  A
C1396     Br1397   1.928   1_565  S
C1401      C1402   1.420       .  A
C1401      C1406   1.412       .  A
C1401     Br2848   1.926   1_455  S
C1402      C1403   1.419       .  A
C1403      C1404   1.417       .  A
C1403     Br1410   1.934       .  S
C1404      C1405   1.416       .  A
C1404     Br1409   1.934       .  S
C1405      C1406   1.405       .  A
C1406     Br2847   1.932   1_455  S
Br1407     C2846   1.931       .  S
Br1408     C2841   1.925       .  S
C1411      C1412   1.417       .  A
C1411      C1416   1.409       .  A
C1411     Br1418   1.937       .  S
C1412      C1413   1.416       .  A
C1413      C1414   1.410       .  A
C1413     Br1420   1.932       .  S
C1414      C1415   1.411       .  A
C1414     Br1419   1.933       .  S
C1415      C1416   1.413       .  A
C1416     Br1417   1.930       .  S
C1421      C1422   1.415       .  A
C1421      C2866   1.407       .  A
C1421     Br1428   1.930       .  S
C1422      C1423   1.417       .  A
C1423      C1424   1.410       .  A
C1423     Br1430   1.931       .  S
C1424      C2865   1.407       .  A
C1424     Br1429   1.931       .  S
C1425      C2864   1.407   1_655  A
C1425      C1426   1.406       .  A
C1426      C2861   1.408       .  A
C1426     Br1427   1.931       .  S
C1431      C1432   1.418       .  A
C1431      C1436   1.413       .  A
C1431     Br2878   1.932   1_455  S
C1432      C1433   1.418       .  A
C1433      C1434   1.407       .  A
C1433     Br1440   1.936       .  S
C1434      C1435   1.409       .  A
C1434     Br1439   1.932       .  S
C1435      C1436   1.408       .  A
C1436     Br2877   1.930   1_455  S
Br1437     C2876   1.929       .  S
Br1438     C2871   1.930       .  S
C1441      N1442   1.360       .  A
C1441      N1446   1.357       .  A
C1441      C2152   1.490       .  S
N1442      C1443   1.360       .  A
C1443      N1444   1.359       .  A
C1443      C2145   1.472       .  S
N1444      C1445   1.359       .  A
C1445      N1446   1.356       .  A
C1445      C2132   1.487       .  S
C1447      N1448   1.365       .  A
C1447      N1452   1.362       .  A
C1447      C2122   1.505       .  S
N1448      C1449   1.365       .  A
C1449      N1450   1.356       .  A
C1449      C2102   1.480       .  S
N1450      C1451   1.355       .  A
C1451      N1452   1.361       .  A
C1451      C2112   1.476       .  S
C1453      N1454   1.360       .  A
C1453      N1458   1.357       .  A
C1453      C2092   1.487       .  S
N1454      C1455   1.358       .  A
C1455      N1456   1.354       .  A
C1455      C2075   1.470       .  S
C1457      C2085   1.477       .  S
O1459     Cr1477   1.980       .  S
O1459      C1467   1.259       .  A
O1460     Cr1477   2.014       .  S
O1460      C1461   1.265       .  A
C1461      C2032   1.497       .  S
C1461      O1462   1.264       .  A
O1462     Cr1478   1.991       .  S
O1463     Cr1478   1.997       .  S
O1463      C1464   1.262       .  A
C1464      C2052   1.477       .  S
C1464      O1465   1.262       .  A
O1465     Cr1479   1.983       .  S
O1466     Cr1479   2.017       .  S
O1466      C1467   1.267       .  A
C1467      C2042   1.503       .  S
O1468     Cr1477   2.023       .  S
O1468      C1476   1.266   1_545  A
O1469     Cr1477   1.985       .  S
O1469      C1470   1.263       .  A
C1470      C2142   1.489       .  S
C1470      O1471   1.265       .  A
O1471     Cr1478   2.005       .  S
O1472     Cr1478   1.988       .  S
O1472      C1473   1.264       .  A
C1473      C2095   1.478       .  S
C1473      O1474   1.265       .  A
O1474     Cr1479   2.005       .  S
O1475     Cr2199   1.974       .  S
O1475      C2196   1.257       .  A
C1476      C2785   1.497       .  S
C1476      O2195   1.256       .  A
Cr1477     O1480   1.771       .  S
Cr1478     O1480   1.771       .  S
Cr1479     O2195   1.971   1_545  S
Cr1479     O1480   1.768       .  S
O1481     Cr1499   2.031       .  S
O1481      C1489   1.272       .  A
O1482     Cr1499   1.974       .  S
O1482      C1483   1.258       .  A
C1483      C2002   1.483       .  S
C1483      O1484   1.266       .  A
O1484     Cr1500   2.023       .  S
O1485     Cr1500   1.979       .  S
O1485      C1486   1.258       .  A
C1486      C2012   1.498       .  S
C1486      O1487   1.268       .  A
O1487     Cr1501   2.028       .  S
O1488     Cr1501   1.989       .  S
O1488      C1489   1.264       .  A
C1489      C2035   1.508       .  S
O1490     Cr1499   1.964       .  S
O1490      C1498   1.255       .  A
O1491     Cr1499   2.038       .  S
O1491      C1492   1.272       .  A
C1492      C2022   1.520       .  S
C1492      O1493   1.257       .  A
O1493     Cr1500   1.972       .  S
O1494     Cr1500   2.020       .  S
O1494      C1495   1.268       .  A
C1495      C2072   1.489       .  S
C1495      O1496   1.260       .  A
O1496     Cr1501   1.968       .  S
O1497     Cr1501   2.030       .  S
O1497      C1498   1.270       .  A
C1498      C2105   1.505       .  S
Cr1499     O1502   1.778       .  S
Cr1500     O1502   1.781       .  S
Cr1501     O1502   1.784       .  S
O1503     Cr1521   1.987       .  S
O1503      C1511   1.265       .  A
O1504     Cr1521   2.012       .  S
O1504      C1505   1.264       .  A
C1505      C2045   1.501       .  S
C1505      O1506   1.262       .  A
O1506     Cr1522   1.989       .  S
O1507     Cr1522   2.003       .  S
O1507      C1508   1.261       .  A
C1508      C1995   1.488       .  S
C1508      O1509   1.264       .  A
O1509     Cr1523   2.000       .  S
O1510     Cr1523   2.004       .  S
O1510      C1511   1.265       .  A
C1511      C2005   1.476       .  S
O1512     Cr1521   2.008       .  S
O1512      C1520   1.260       .  A
O1513     Cr1521   1.988       .  S
O1513      C1514   1.261   1_545  A
C1514      C2835   1.495       .  S
C1514      O2235   1.267       .  A
O1515     Cr2242   2.018       .  S
O1515      C2234   1.267       .  A
O1516     Cr1522   1.980       .  S
O1516      C1517   1.263       .  A
C1517      C2082   1.470       .  S
C1517      O1518   1.262       .  A
O1518     Cr1523   1.985       .  S
O1519     Cr1523   1.971       .  S
O1519      C1520   1.255       .  A
C1520      C2135   1.486       .  S
Cr1521     O1524   1.779       .  S
Cr1522     O2235   2.023   1_545  S
Cr1522     O1524   1.777       .  S
Cr1523     O1524   1.775       .  S
C1525      N1526   1.361       .  A
C1525      N1530   1.359       .  A
C1525      C1985   1.482       .  S
N1526      C1527   1.362       .  A
C1527      N1528   1.363       .  A
C1527      C2025   1.506       .  S
N1528      C1529   1.364       .  A
C1529      N1530   1.360       .  A
C1529      C2062   1.508       .  S
C1531      N1532   1.351       .  A
C1531      N1536   1.354       .  A
C1531      C1972   1.475       .  S
N1532      C1533   1.363       .  A
C1533      N1534   1.359       .  A
C1533      C1962   1.475       .  S
N1534      C1535   1.352       .  A
C1535      N1536   1.361       .  A
C1535      C1952   1.515       .  S
C1537      N1538   1.362       .  A
C1537      N1542   1.362       .  A
C1537      C1942   1.500       .  S
N1538      C1539   1.363   1_455  A
C1539      N1540   1.361       .  A
C1539      C1932   1.512       .  S
N1540      C1541   1.359   1_655  A
C1541      N1542   1.359       .  A
C1541      C1925   1.482       .  S
C1543      N1544   1.350       .  A
C1543      N1548   1.353       .  A
C1543      C1912   1.448       .  S
N1544      C1545   1.348       .  A
C1545      N1546   1.353       .  A
C1545      C1902   1.450       .  S
N1546      C1547   1.355       .  A
C1547      N1548   1.355       .  A
C1547      C1892   1.473       .  S
O1549      C1557   1.266       .  A
O1550     Cr1567   1.969       .  S
O1550      C1551   1.260       .  A
C1551      C1882   1.482       .  S
C1551      O1552   1.268       .  A
O1552     Cr1568   2.012       .  S
O1553     Cr1568   1.979       .  S
O1553      C1554   1.258       .  A
C1554      C2125   1.491       .  S
C1554      O1555   1.267       .  A
O1555     Cr1569   2.018       .  S
O1556      C1557   1.264       .  A
C1557      C1872   1.483       .  S
O1558     Cr1567   1.977       .  S
O1558      C1566   1.259       .  A
O1559     Cr1567   2.013       .  S
O1559      C1560   1.263       .  A
C1560      C1965   1.475       .  S
C1560      O1561   1.255       .  A
O1561     Cr1568   1.966       .  S
O1562     Cr1568   1.995       .  S
O1562      C1563   1.262       .  A
C1563      C1915   1.455       .  S
C1563      O1564   1.257       .  A
O1564     Cr1569   1.957       .  S
O1565     Cr1569   2.031       .  S
O1565      C1566   1.269       .  A
C1566      C1935   1.499       .  S
Cr1567     O1570   1.773       .  S
Cr1568     O1570   1.776       .  S
Cr1569     O1570   1.770       .  S
O1571     Cr1589   1.982       .  S
O1571      C1579   1.262       .  A
O1572      C1573   1.268       .  A
C1573      C1855   1.493       .  S
C1573      O1574   1.258       .  A
O1575     Cr1590   1.999       .  S
O1575      C1576   1.261       .  A
C1576      C2155   1.477       .  S
C1576      O1577   1.259       .  A
O1577     Cr1591   1.981       .  S
O1578     Cr1591   2.004       .  S
O1578      C1579   1.265       .  A
C1579      C1885   1.482       .  S
O1580     Cr1589   2.020       .  S
O1580      C1588   1.265       .  A
O1581     Cr1589   1.976       .  S
O1581      C1582   1.257       .  A
C1582      C1922   1.486       .  S
C1582      O1583   1.265       .  A
O1583     Cr1590   2.021       .  S
O1584     Cr1590   1.961       .  S
O1584      C1585   1.260       .  A
C1585      C1895   1.462       .  S
C1585      O1586   1.262       .  A
O1586     Cr1591   1.994       .  S
O1587     Cr1591   1.975       .  S
O1587      C1588   1.257       .  A
C1588      C1865   1.489       .  S
Cr1589     O1592   1.774       .  S
Cr1590     O1592   1.779       .  S
Cr1591     O1592   1.774       .  S
O1593     Cr1611   2.007       .  S
O1593      C1601   1.264       .  A
O1594     Cr1611   1.975       .  S
O1594      C1595   1.261       .  A
C1595      C1875   1.478       .  S
C1595      O1596   1.269       .  A
O1596     Cr1612   2.013       .  S
O1597     Cr1612   1.985       .  S
O1597      C1598   1.259       .  A
C1598      C1982   1.478       .  S
C1598      O1599   1.263       .  A
O1599     Cr1613   2.004       .  S
O1600     Cr1613   1.976       .  S
O1600      C1601   1.260       .  A
C1601      C1852   1.483       .  S
O1602     Cr1611   1.969       .  S
O1602      C1610   1.260       .  A
O1603     Cr1611   2.016       .  S
O1603      C1604   1.263       .  A
C1604      C1845   1.491       .  S
C1604      O1605   1.257       .  A
O1605     Cr1612   1.977       .  S
O1606     Cr1612   2.001       .  S
O1606      C1607   1.263       .  A
C1607      C1905   1.454       .  S
C1607      O1608   1.253       .  A
O1608     Cr1613   1.948       .  S
O1609     Cr1613   2.023       .  S
O1609      C1610   1.268       .  A
C1610      C1955   1.484       .  S
Cr1611     O1614   1.769       .  S
Cr1612     O1614   1.772       .  S
Cr1613     O1614   1.773       .  S
C1615      N1616   1.360       .  A
C1615      N1620   1.363       .  A
C1615      C1835   1.510       .  S
N1616      C1617   1.360       .  A
C1617      N1618   1.363       .  A
C1617      C1842   1.507       .  S
N1618      C1619   1.363       .  A
C1619      N1620   1.365       .  A
C1619      C1862   1.490       .  S
C1621      N1622   1.363       .  A
C1621      N1626   1.353       .  A
C1621      C2055   1.500       .  S
N1622      C1623   1.363   1_556  A
C1623      N1624   1.360       .  A
C1623      C1822   1.496       .  S
N1624      C1625   1.354       .  A
C1625      N1626   1.350   1_554  A
C1625      C2532   1.472       .  S
C1627      N1628   1.369       .  A
C1627      N1632   1.360       .  A
C1627      C2015   1.507       .  S
N1628      C1629   1.368   1_556  A
C1629      N1630   1.354       .  A
C1629      C1802   1.523       .  S
N1630      C1631   1.356       .  A
C1631      N1632   1.359   1_554  A
C1631      C1795   1.481       .  S
C1633      N1634   1.352       .  A
C1633      N1638   1.356       .  A
C1633      C1762   1.462       .  S
N1634      C1635   1.355       .  A
C1635      N1636   1.357       .  A
C1635      C1772   1.472       .  S
N1636      C1637   1.358       .  A
C1637      N1638   1.356       .  A
C1637      C1782   1.468       .  S
O1639     Cr1657   2.033       .  S
O1639      C1647   1.274       .  A
O1640     Cr1657   1.974       .  S
O1640      C1641   1.261       .  A
C1641      C1745   1.476       .  S
C1641      O1642   1.267       .  A
O1643      C1644   1.256       .  A
C1644      C1945   1.492       .  S
C1644      O1645   1.262       .  A
O1646      C1647   1.260       .  A
C1647      C1752   1.493       .  S
O1648     Cr1657   1.982       .  S
O1649     Cr1657   2.028       .  S
C1650      C1825   1.507       .  S
C1650      O1651   1.257       .  A
O1651     Cr1658   1.976       .  S
O1652     Cr1658   2.028       .  S
O1652      C1653   1.274       .  A
C1653      C1785   1.474       .  S
C1653      O1654   1.259       .  A
O1654     Cr1659   1.957   1_655  S
O1655     Cr1659   2.034   1_655  S
O1655      C1656   1.270       .  A
C1656      C1805   1.501       .  S
Cr1657     O1660   1.771       .  S
O1661     Cr1679   2.007       .  S
O1661      C1669   1.264       .  A
O1662     Cr1679   1.954       .  S
O1662      C1663   1.251       .  A
C1663      C1755   1.497       .  S
C1663      O1664   1.267       .  A
O1664     Cr1680   2.029       .  S
O1665     Cr1680   1.982       .  S
O1665      C1666   1.262       .  A
C1666      C1975   1.483       .  S
C1666      O1667   1.260       .  A
O1667     Cr1681   1.985       .  S
O1668     Cr1681   1.971       .  S
O1668      C1669   1.257       .  A
C1669      C1725   1.506       .  S
O1670     Cr1679   1.960       .  S
O1670      C1678   1.257       .  A
O1671     Cr1679   2.030       .  S
O1671      C1672   1.271       .  A
C1672      C1732   1.506       .  S
C1672      O1673   1.257       .  A
O1673     Cr1680   1.971       .  S
O1674     Cr1680   2.008       .  S
O1674      C1675   1.267       .  A
C1675      C2495   1.489       .  S
C1675      O1676   1.258       .  A
O1676     Cr1681   1.962       .  S
O1677     Cr1681   2.002       .  S
O1677      C1678   1.264       .  A
C1678      C1815   1.491       .  S
Cr1679     O1682   1.765       .  S
Cr1680     O1682   1.778       .  S
Cr1681     O1682   1.772       .  S
O1683     Cr1701   2.024       .  S
O1683      C1691   1.269       .  A
O1684     Cr1701   1.969       .  S
O1684      C1685   1.260       .  A
C1685      C1722   1.488       .  S
C1685      O1686   1.270       .  A
O1686     Cr1702   2.022       .  S
O1687     Cr1702   1.976       .  S
O1687      C1688   1.256       .  A
C1688      C1832   1.492       .  S
C1688      O1689   1.267       .  A
O1689     Cr1703   2.024       .  S
O1690     Cr1703   1.968       .  S
O1690      C1691   1.259       .  A
C1691      C1742   1.475       .  S
O1692     Cr1701   1.970       .  S
O1692      C1700   1.254       .  A
O1693     Cr1701   2.019       .  S
O1693      C1694   1.267       .  A
C1694      C1792   1.503       .  S
C1694      O1695   1.256       .  A
O1695     Cr1702   1.970       .  S
O1696     Cr1702   2.020       .  S
O1696      C1697   1.272       .  A
C1697      C1765   1.473       .  S
C1697      O1698   1.257       .  A
O1698     Cr1703   1.955       .  S
O1699     Cr1703   2.025       .  S
O1699      C1700   1.268       .  A
C1700      C1712   1.516       .  S
Cr1701     O1704   1.771       .  S
Cr1702     O1704   1.769       .  S
Cr1703     O1704   1.774       .  S
C1705      N1706   1.363       .  A
C1705      N1710   1.358       .  A
C1705      C1992   1.483       .  S
N1706      C1707   1.364   1_556  A
C1707      N1708   1.363       .  A
C1707      C2455   1.496       .  S
N1708      C1709   1.359       .  A
C1709      N1710   1.356   1_554  A
C1709      C1715   1.490       .  S
C1711      C1712   1.427       .  A
C1711      C1716   1.415       .  A
C1711     Br1718   1.935       .  S
C1712      C1713   1.433       .  A
C1713      C1714   1.414       .  A
C1713     Br1720   1.942       .  S
C1714      C1715   1.408       .  A
C1714     Br1719   1.939   1_554  S
C1715      C1716   1.408       .  A
C1716     Br1717   1.934       .  S
C1721      C1722   1.411       .  A
C1721      C1726   1.411       .  A
C1721     Br1728   1.935       .  S
C1722      C1723   1.409       .  A
C1723      C1724   1.412       .  A
C1723     Br1730   1.932       .  S
C1724      C1725   1.426       .  A
C1724     Br1729   1.940       .  S
C1725      C1726   1.425       .  A
C1726     Br1727   1.938       .  S
C1731      C1732   1.417       .  A
C1731      C1736   1.418       .  A
C1731     Br1738   1.933       .  S
C1732      C1733   1.422       .  A
C1733      C1734   1.412       .  A
C1733     Br1740   1.933       .  S
C1734      C1735   1.411       .  A
C1734     Br2459   1.936       .  S
C1735      C2427   1.497       .  S
C1735      C1736   1.415       .  A
C1736     Br1737   1.930       .  S
Br1739     C2454   1.938       .  S
C1741      C1742   1.410       .  A
C1741      C1746   1.411       .  A
C1741     Br1748   1.929       .  S
C1742      C1743   1.409       .  A
C1743      C1744   1.405       .  A
C1743     Br1750   1.929       .  S
C1744      C1745   1.409       .  A
C1744     Br1749   1.932       .  S
C1745      C1746   1.411       .  A
C1746     Br1747   1.928       .  S
C1751      C1752   1.413       .  A
C1751      C1756   1.407       .  A
C1751     Br1758   1.938       .  S
C1752      C1753   1.420       .  A
C1753      C1754   1.413       .  A
C1753     Br1760   1.937       .  S
C1754      C1755   1.417       .  A
C1754     Br1759   1.936       .  S
C1755      C1756   1.423       .  A
C1756     Br1757   1.942       .  S
C1761      C1762   1.402       .  A
C1761      C1766   1.403       .  A
C1761     Br1768   1.928       .  S
C1762      C1763   1.408       .  A
C1763      C1764   1.403       .  A
C1763     Br1770   1.932       .  S
C1764      C1765   1.414       .  A
C1764     Br1769   1.933       .  S
C1765      C1766   1.411       .  A
C1766     Br1767   1.927       .  S
C1771      C1772   1.403       .  A
C1771      C1776   1.406       .  A
C1771     Br1778   1.936       .  S
C1772      C1773   1.409       .  A
C1773      C1774   1.408       .  A
C1773     Br1780   1.938       .  S
C1774      C1775   1.425       .  A
C1774     Br1779   1.939       .  S
C1775      C2395   1.497   1_545  S
C1775      C1776   1.425       .  A
C1776     Br2497   1.937       .  S
Br1777     C2496   1.933       .  S
C1781      C1782   1.409       .  A
C1781      C1786   1.403       .  A
C1781     Br1788   1.932       .  S
C1782      C1783   1.405       .  A
C1783      C1784   1.407       .  A
C1783     Br1790   1.929       .  S
C1784      C1785   1.412       .  A
C1784     Br1789   1.926       .  S
C1785      C1786   1.411       .  A
C1786     Br1787   1.933       .  S
C1791      C1792   1.424       .  A
C1791      C1796   1.408       .  A
C1791     Br1798   1.929       .  S
C1792      C1793   1.420       .  A
C1793      C1794   1.413       .  A
C1793     Br1800   1.929       .  S
C1794      C1795   1.408       .  A
C1794     Br1799   1.928       .  S
C1795      C1796   1.406       .  A
C1796     Br1797   1.937       .  S
C1801      C1802   1.431       .  A
C1801      C1806   1.417       .  A
C1801     Br1808   1.940       .  S
C1802      C1803   1.422       .  A
C1803      C1804   1.415       .  A
C1803     Br1810   1.934   1_554  S
C1804      C1805   1.415       .  A
C1805      C1806   1.413       .  A
C1806     Br1807   1.938       .  S
C1811      C1812   1.405       .  A
C1811      C1816   1.409       .  A
C1811     Br2538   1.930       .  S
C1812      C2345   1.469       .  S
C1812      C1813   1.405       .  A
C1813      C1814   1.403       .  A
C1813     Br2540   1.937       .  S
C1814      C1815   1.421       .  A
C1814     Br1819   1.932       .  S
C1815      C1816   1.421       .  A
C1816     Br1817   1.935       .  S
Br1818     C2531   1.932       .  S
Br1820     C2533   1.940   1_556  S
C1821      C1822   1.414       .  A
C1821      C1826   1.409       .  A
C1821     Br1828   1.942       .  S
C1822      C1823   1.415       .  A
C1823      C1824   1.417       .  A
C1823     Br1830   1.935   1_554  S
C1824      C1825   1.424       .  A
C1825      C1826   1.422       .  A
C1826     Br1827   1.934       .  S
C1831      C1832   1.407       .  A
C1831      C1836   1.415       .  A
C1831     Br1838   1.934       .  S
C1832      C1833   1.414       .  A
C1833      C1834   1.413       .  A
C1833     Br1840   1.937       .  S
C1834      C1835   1.422       .  A
C1834     Br1839   1.937       .  S
C1835      C1836   1.422       .  A
C1836     Br1837   1.923       .  S
C1841      C1842   1.421       .  A
C1841      C1846   1.412       .  A
C1841     Br1848   1.924       .  S
C1842      C1843   1.422       .  A
C1843      C1844   1.414       .  A
C1843     Br1850   1.937       .  S
C1844      C1845   1.412       .  A
C1844     Br1849   1.928       .  S
C1845      C1846   1.408       .  A
C1846     Br1847   1.936       .  S
C1851      C1852   1.414       .  A
C1851      C2576   1.409       .  A
C1851     Br1858   1.936       .  S
C1852      C1853   1.416       .  A
C1853      C1854   1.405       .  A
C1853     Br1860   1.936       .  S
C1854      C2575   1.414       .  A
C1854     Br1859   1.935       .  S
C1855      C2574   1.415   1_545  A
C1855      C1856   1.418       .  A
C1856      C2571   1.412   1_545  A
C1856     Br1857   1.935       .  S
C1861      C1862   1.414       .  A
C1861      C1866   1.415       .  A
C1861     Br1868   1.923       .  S
C1862      C1863   1.407       .  A
C1863      C1864   1.405       .  A
C1863     Br1870   1.924       .  S
C1864      C1865   1.409       .  A
C1864     Br1869   1.921       .  S
C1865      C1866   1.412       .  A
C1866     Br1867   1.929       .  S
C1871      C1872   1.414       .  A
C1871      C1876   1.410       .  A
C1871     Br1878   1.931       .  S
C1872      C1873   1.412       .  A
C1873      C1874   1.410       .  A
C1873     Br1880   1.932       .  S
C1874      C1875   1.411       .  A
C1874     Br1879   1.930       .  S
C1875      C1876   1.408       .  A
C1876     Br1877   1.931       .  S
C1881      C1882   1.413       .  A
C1881      C2606   1.407       .  A
C1881     Br1888   1.933       .  S
C1882      C1883   1.413       .  A
C1883      C1884   1.408       .  A
C1883     Br1890   1.934       .  S
C1884      C2605   1.412       .  A
C1884     Br1889   1.932       .  S
C1885      C2604   1.411   1_545  A
C1885      C1886   1.413   1_545  A
C1886      C2601   1.405       .  A
C1886     Br1887   1.928   1_565  S
C1891      C1892   1.414       .  A
C1891      C1896   1.402       .  A
C1891     Br1898   1.933       .  S
C1892      C1893   1.417       .  A
C1893      C1894   1.400       .  A
C1893     Br1900   1.935       .  S
C1894      C1895   1.407       .  A
C1894     Br1899   1.932       .  S
C1895      C1896   1.405       .  A
C1896     Br1897   1.933       .  S
C1901      C1902   1.402       .  A
C1901      C1906   1.403       .  A
C1901     Br1908   1.928       .  S
C1902      C1903   1.406       .  A
C1903      C1904   1.395       .  A
C1903     Br1910   1.932       .  S
C1904      C1905   1.407       .  A
C1904     Br1909   1.931       .  S
C1905      C1906   1.408       .  A
C1906     Br1907   1.925       .  S
C1911      C1912   1.404       .  A
C1911      C1916   1.400       .  A
C1911     Br1918   1.930       .  S
C1912      C1913   1.405       .  A
C1913      C1914   1.397       .  A
C1913     Br1920   1.932       .  S
C1914      C1915   1.408       .  A
C1914     Br1919   1.928       .  S
C1915      C1916   1.407       .  A
C1916     Br1917   1.927       .  S
C1921      C1926   1.415       .  A
C1921     Br1928   1.929       .  S
C1922      C1923   1.413       .  A
C1923      C1924   1.408       .  A
C1923     Br1930   1.930       .  S
C1924     Br1929   1.930       .  S
C1925      C1926   1.412   1_455  A
C1926     Br1927   1.926       .  S
C1931      C1936   1.416       .  A
C1931     Br1938   1.935       .  S
C1932      C1933   1.425   1_655  A
C1933      C1934   1.412   1_455  A
C1933     Br1940   1.938       .  S
C1934     Br1939   1.928       .  S
C1935      C1936   1.411       .  A
C1936     Br1937   1.933       .  S
C1941      C1942   1.417   1_655  A
C1941      C1946   1.411   1_655  A
C1941     Br1948   1.933       .  S
C1943      C1944   1.417       .  A
C1943     Br1950   1.931       .  S
C1944      C1945   1.410       .  A
C1944     Br1949   1.929       .  S
C1946     Br1947   1.936   1_455  S
C1951      C1952   1.435       .  A
C1951      C1956   1.412       .  A
C1951     Br1958   1.942       .  S
C1952      C1953   1.433       .  A
C1953      C1954   1.409       .  A
C1953     Br1960   1.941       .  S
C1954      C1955   1.403       .  A
C1954     Br1959   1.940       .  S
C1955      C1956   1.406       .  A
C1956     Br1957   1.931       .  S
C1961      C1962   1.413       .  A
C1961      C1966   1.406       .  A
C1961     Br1968   1.931       .  S
C1962      C1963   1.412       .  A
C1963      C1964   1.407       .  A
C1963     Br1970   1.929       .  S
C1964      C1965   1.410       .  A
C1964     Br1969   1.926       .  S
C1965      C1966   1.408       .  A
C1966     Br1967   1.932       .  S
C1971      C1972   1.405       .  A
C1971      C1976   1.402       .  A
C1971     Br1978   1.937       .  S
C1972      C1973   1.407       .  A
C1973      C1974   1.409       .  A
C1973     Br1980   1.925       .  S
C1974      C1975   1.414       .  A
C1974     Br1979   1.931       .  S
C1975      C1976   1.420       .  A
C1976     Br1977   1.937       .  S
C1981      C1982   1.409       .  A
C1981      C1986   1.412       .  A
C1981     Br1988   1.927       .  S
C1982      C1983   1.409       .  A
C1983      C1984   1.405       .  A
C1983     Br1990   1.927       .  S
C1984      C1985   1.407       .  A
C1984     Br1989   1.926       .  S
C1985      C1986   1.413       .  A
C1986     Br1987   1.926       .  S
C1991      C1992   1.407       .  A
C1991      C1996   1.406       .  A
C1991     Br1998   1.935       .  S
C1992      C1993   1.411       .  A
C1993      C1994   1.416       .  A
C1993     Br2000   1.929       .  S
C1994      C1995   1.413       .  A
C1994     Br1999   1.925       .  S
C1995      C1996   1.413       .  A
C1996     Br1997   1.924       .  S
C2001      C2002   1.406       .  A
C2001      C2006   1.405       .  A
C2001     Br2008   1.917       .  S
C2002      C2003   1.409       .  A
C2003      C2004   1.412       .  A
C2003     Br2010   1.919       .  S
C2004      C2005   1.410       .  A
C2004     Br2009   1.928       .  S
C2005      C2006   1.406       .  A
C2006     Br2007   1.925       .  S
C2011      C2012   1.412       .  A
C2011      C2016   1.414       .  A
C2011     Br2018   1.926       .  S
C2012      C2013   1.417       .  A
C2013      C2014   1.414       .  A
C2013     Br2020   1.940       .  S
C2014      C2015   1.420       .  A
C2014     Br2019   1.930       .  S
C2015      C2016   1.417       .  A
C2016     Br2017   1.931       .  S
C2021      C2022   1.429       .  A
C2021      C2026   1.417       .  A
C2021     Br2028   1.935       .  S
C2022      C2023   1.421       .  A
C2023      C2024   1.416       .  A
C2023     Br2030   1.930       .  S
C2024      C2025   1.415       .  A
C2024     Br2029   1.929       .  S
C2025      C2026   1.414       .  A
C2026     Br2027   1.939       .  S
C2031      C2032   1.408       .  A
C2031      C2036   1.408       .  A
C2031     Br2038   1.935       .  S
C2032      C2033   1.415       .  A
C2033      C2034   1.420       .  A
C2033     Br2040   1.929       .  S
C2034      C2035   1.420       .  A
C2034     Br2039   1.930       .  S
C2035      C2036   1.417       .  A
C2036     Br2037   1.918       .  S
C2041      C2042   1.421       .  A
C2041      C2046   1.413       .  A
C2041     Br2048   1.941       .  S
C2042      C2043   1.420       .  A
C2043      C2044   1.412       .  A
C2043     Br2050   1.937       .  S
C2044      C2045   1.416       .  A
C2044     Br2049   1.937   1_545  S
C2045      C2046   1.421       .  A
C2046     Br2047   1.939       .  S
C2051      C2052   1.408       .  A
C2051      C2056   1.410       .  A
C2051     Br2058   1.931       .  S
C2052      C2053   1.407       .  A
C2053      C2054   1.408       .  A
C2053     Br2060   1.939   1_545  S
C2054      C2055   1.428       .  A
C2054     Br2059   1.942   1_545  S
C2055      C2056   1.423       .  A
C2056     Br2057   1.936       .  S
C2061      C2062   1.426       .  A
C2061      C2066   1.413       .  A
C2061     Br2068   1.931       .  S
C2062      C2063   1.421       .  A
C2063      C2064   1.411       .  A
C2063     Br2070   1.933       .  S
C2064      C2065   1.409       .  A
C2064     Br2069   1.935       .  S
C2065      C2196   1.490       .  S
C2065      C2066   1.412       .  A
C2066     Br2787   1.938       .  S
Br2067     C2786   1.938   1_545  S
C2071      C2072   1.415       .  A
C2071      C2076   1.403       .  A
C2071     Br2078   1.928       .  S
C2072      C2073   1.417       .  A
C2073      C2074   1.409       .  A
C2073     Br2080   1.922       .  S
C2074      C2075   1.404       .  A
C2074     Br2079   1.931       .  S
C2075      C2076   1.409       .  A
C2076     Br2077   1.938       .  S
C2081      C2802   1.407       .  A
C2081      C2086   1.405       .  A
C2081     Br2088   1.932       .  S
C2082      C2801   1.407   1_545  A
C2082      C2083   1.408       .  A
C2083      C2084   1.403       .  A
C2083     Br2090   1.930       .  S
C2084      C2805   1.419   1_545  A
C2084     Br2089   1.940       .  S
C2085      C2804   1.419       .  A
C2085      C2086   1.413       .  A
C2086     Br2087   1.932       .  S
C2091      C2092   1.414       .  A
C2091      C2816   1.410       .  A
C2091     Br2818   1.931       .  S
C2092      C2093   1.418       .  A
C2093      C2094   1.407       .  A
C2093     Br2100   1.937       .  S
C2094      C2815   1.409       .  A
C2094     Br2099   1.928       .  S
C2095      C2814   1.408   1_545  A
C2095      C2096   1.407       .  A
C2096      C2811   1.409       .  A
C2096     Br2097   1.931       .  S
Br2098     C2811   1.932       .  S
C2101      C2102   1.409       .  A
C2101     Br2108   1.930       .  S
C2103      C2104   1.407       .  A
C2103     Br2110   1.932       .  S
C2104      C2105   1.425       .  A
C2104     Br2109   1.935       .  S
C2105      C2106   1.422       .  A
C2106     Br2107   1.929       .  S
C2111      C2112   1.405       .  A
C2111      C2116   1.409       .  A
C2111     Br2118   1.933       .  S
C2112      C2113   1.407       .  A
C2113      C2114   1.412       .  A
C2113     Br2120   1.929       .  S
C2114      C2115   1.414       .  A
C2114     Br2119   1.929       .  S
C2115      C2234   1.490       .  S
C2115      C2116   1.417       .  A
C2116     Br2117   1.927       .  S
C2121      C2122   1.419       .  A
C2121      C2126   1.412       .  A
C2122      C2123   1.420       .  A
C2123      C2124   1.417       .  A
C2123     Br2130   1.935       .  S
C2124      C2125   1.415       .  A
C2124     Br2129   1.934       .  S
C2125      C2126   1.404       .  A
C2131      C2132   1.414       .  A
C2131      C2136   1.408       .  A
C2131     Br2138   1.935       .  S
C2132      C2133   1.414       .  A
C2133      C2134   1.410       .  A
C2133     Br2140   1.932       .  S
C2134      C2135   1.412       .  A
C2134     Br2139   1.932       .  S
C2135      C2136   1.413       .  A
C2136     Br2137   1.929       .  S
C2141      C2142   1.416       .  A
C2141     Br2148   1.929       .  S
C2142      C2143   1.417       .  A
C2143      C2144   1.410   1_655  A
C2143     Br2150   1.931       .  S
C2144     Br2149   1.931       .  S
C2145      C2146   1.405       .  A
C2146     Br2147   1.931       .  S
C2151      C2152   1.419       .  A
C2151      C2156   1.413       .  A
C2152      C2153   1.417       .  A
C2153      C2154   1.406       .  A
C2153     Br2160   1.936       .  S
C2154      C2155   1.408       .  A
C2154     Br2159   1.931       .  S
C2155      C2156   1.407       .  A
C2161      N2162   1.360       .  A
C2161      N2166   1.357       .  A
C2161      C2872   1.485       .  S
N2162      C2163   1.358       .  A
C2163      N2164   1.357       .  A
C2163      C2865   1.473       .  S
N2164      C2165   1.359       .  A
C2165      N2166   1.356       .  A
C2165      C2852   1.493       .  S
C2167      N2168   1.366       .  A
C2167      N2172   1.368       .  A
C2167      C2842   1.517       .  S
N2168      C2169   1.364       .  A
C2169      N2170   1.358       .  A
C2169      C2822   1.487       .  S
N2170      C2171   1.358       .  A
C2171      N2172   1.367       .  A
C2171      C2832   1.489       .  S
C2173      N2174   1.359       .  A
C2173      N2178   1.355       .  A
C2173      C2812   1.487       .  S
N2174      C2175   1.358       .  A
C2175      N2176   1.355       .  A
C2175      C2795   1.472       .  S
C2177      C2805   1.482       .  S
O2179     Cr2197   1.988       .  S
O2179      C2187   1.263       .  A
O2180     Cr2197   2.000       .  S
O2180      C2181   1.261       .  A
C2181      C2752   1.489       .  S
C2181      O2182   1.265       .  A
O2182     Cr2198   1.989       .  S
O2183     Cr2198   1.999       .  S
O2183      C2184   1.262       .  A
C2184      C2772   1.486       .  S
C2184      O2185   1.264       .  A
O2185     Cr2199   1.992       .  S
O2186     Cr2199   2.023       .  S
O2186      C2187   1.269       .  A
C2187      C2762   1.508       .  S
O2188     Cr2197   2.010       .  S
O2188      C2196   1.261       .  A
O2189     Cr2197   1.990       .  S
O2189      C2190   1.264       .  A
C2190      C2862   1.488       .  S
C2190      O2191   1.264       .  A
O2191     Cr2198   2.004       .  S
O2192     Cr2198   1.987       .  S
O2192      C2193   1.264       .  A
C2193      C2815   1.479       .  S
C2193      O2194   1.265       .  A
O2194     Cr2199   2.006       .  S
Cr2197     O2200   1.777       .  S
Cr2198     O2200   1.776       .  S
Cr2199     O2200   1.771       .  S
O2201     Cr2219   2.019       .  S
O2201      C2209   1.270       .  A
O2202     Cr2219   1.972       .  S
O2202      C2203   1.257       .  A
C2203      C2722   1.491       .  S
C2203      O2204   1.269       .  A
O2204     Cr2220   2.034       .  S
O2205     Cr2220   1.983       .  S
O2205      C2206   1.259       .  A
C2206      C2732   1.499       .  S
C2206      O2207   1.268       .  A
O2207     Cr2221   2.029       .  S
O2208     Cr2221   1.974       .  S
O2208      C2209   1.261       .  A
C2209      C2755   1.497       .  S
O2210     Cr2219   1.959       .  S
O2210      C2218   1.254       .  A
O2211     Cr2219   2.028       .  S
O2211      C2212   1.271       .  A
C2212      C2742   1.514       .  S
C2212      O2213   1.258       .  A
O2213     Cr2220   1.973       .  S
O2214     Cr2220   2.032       .  S
O2214      C2215   1.272       .  A
C2215      C2792   1.493       .  S
C2215      O2216   1.259       .  A
O2216     Cr2221   1.963       .  S
O2217     Cr2221   2.029       .  S
O2217      C2218   1.269       .  A
C2218      C2825   1.498       .  S
Cr2219     O2222   1.777       .  S
Cr2220     O2222   1.777       .  S
Cr2221     O2222   1.785       .  S
O2223     Cr2241   1.975       .  S
O2223      C2231   1.264       .  A
O2224     Cr2241   2.018       .  S
O2224      C2225   1.265       .  A
C2225      C2765   1.507       .  S
C2225      O2226   1.263       .  A
O2226     Cr2242   1.991       .  S
O2227     Cr2242   2.007       .  S
O2227      C2228   1.263       .  A
C2228      C2715   1.494       .  S
C2228      O2229   1.265       .  A
O2229     Cr2243   2.002       .  S
O2230     Cr2243   2.015       .  S
O2230      C2231   1.269       .  A
C2231      C2725   1.478       .  S
O2232     Cr2241   2.008       .  S
O2232      C2240   1.259       .  A
O2233     Cr2241   1.982       .  S
O2233      C2234   1.259       .  A
O2236     Cr2242   1.977       .  S
O2236      C2237   1.262       .  A
C2237      C2802   1.468       .  S
C2237      O2238   1.263       .  A
O2238     Cr2243   1.988       .  S
O2239     Cr2243   1.968       .  S
O2239      C2240   1.254       .  A
C2240      C2855   1.488       .  S
Cr2241     O2244   1.781       .  S
Cr2242     O2244   1.773       .  S
Cr2243     O2244   1.772       .  S
C2245      N2246   1.364       .  A
C2245      N2250   1.360       .  A
C2245      C2705   1.489       .  S
N2246      C2247   1.365       .  A
C2247      N2248   1.362       .  A
C2247      C2745   1.504       .  S
N2248      C2249   1.362       .  A
C2249      N2250   1.360       .  A
C2249      C2782   1.513       .  S
C2251      N2252   1.353       .  A
C2251      N2256   1.358       .  A
C2251      C2692   1.485       .  S
N2252      C2253   1.364       .  A
C2253      N2254   1.364       .  A
C2253      C2682   1.485       .  S
N2254      C2255   1.358       .  A
C2255      N2256   1.363       .  A
C2255      C2672   1.528       .  S
C2257      N2258   1.365       .  A
C2257      N2262   1.363       .  A
C2257      C2662   1.501       .  S
N2258      C2259   1.365   1_455  A
C2259      N2260   1.358       .  A
C2259      C2652   1.519       .  S
N2260      C2261   1.355   1_655  A
C2261      N2262   1.358       .  A
C2261      C2645   1.482       .  S
C2263      N2264   1.350       .  A
C2263      N2268   1.351       .  A
C2263      C2632   1.444       .  S
N2264      C2265   1.350       .  A
C2265      N2266   1.352       .  A
C2265      C2622   1.450       .  S
N2266      C2267   1.354       .  A
C2267      N2268   1.352       .  A
C2267      C2612   1.466       .  S
O2269      C2277   1.266       .  A
O2270     Cr2287   1.975       .  S
O2270      C2271   1.263       .  A
C2271      C2602   1.479       .  S
C2271      O2272   1.267       .  A
O2272     Cr2288   2.006       .  S
O2273     Cr2288   1.985       .  S
O2273      C2274   1.259       .  A
C2274      C2845   1.503       .  S
C2274      O2275   1.266       .  A
O2275     Cr2289   2.025       .  S
O2276      C2277   1.262       .  A
C2277      C2592   1.472       .  S
O2278     Cr2287   1.986       .  S
O2278      C2286   1.261       .  A
O2279     Cr2287   2.011       .  S
O2279      C2280   1.262       .  A
C2280      C2685   1.483       .  S
C2280      O2281   1.257       .  A
O2281     Cr2288   1.978       .  S
O2282     Cr2288   1.985       .  S
O2282      C2283   1.261       .  A
C2283      C2635   1.448       .  S
C2283      O2284   1.257       .  A
O2284     Cr2289   1.956       .  S
O2285     Cr2289   2.029       .  S
O2285      C2286   1.268       .  A
C2286      C2655   1.501       .  S
Cr2287     O2290   1.779       .  S
Cr2288     O2290   1.780       .  S
Cr2289     O2290   1.777       .  S
O2291     Cr2309   1.980       .  S
O2291      C2299   1.262       .  A
O2292      C2293   1.268       .  A
C2293      C2575   1.485       .  S
C2293      O2294   1.257       .  A
O2295     Cr2310   1.999       .  S
O2295      C2296   1.261       .  A
C2296      C2875   1.476       .  S
C2296      O2297   1.259       .  A
O2297     Cr2311   1.982       .  S
O2298     Cr2311   2.005       .  S
O2298      C2299   1.265       .  A
C2299      C2605   1.484       .  S
O2300     Cr2309   2.020       .  S
O2300      C2308   1.264       .  A
O2301     Cr2309   1.972       .  S
O2301      C2302   1.256       .  A
C2302      C2642   1.484       .  S
C2302      O2303   1.267       .  A
O2303     Cr2310   2.024       .  S
O2304     Cr2310   1.955       .  S
O2304      C2305   1.259       .  A
C2305      C2615   1.458       .  S
C2305      O2306   1.260       .  A
O2306     Cr2311   1.985       .  S
O2307     Cr2311   1.967       .  S
O2307      C2308   1.254       .  A
C2308      C2585   1.485       .  S
Cr2309     O2312   1.775       .  S
Cr2310     O2312   1.775       .  S
Cr2311     O2312   1.773       .  S
O2313     Cr2331   2.016       .  S
O2313      C2321   1.266       .  A
O2314     Cr2331   1.975       .  S
O2314      C2315   1.260       .  A
C2315      C2595   1.478       .  S
C2315      O2316   1.267       .  A
O2316     Cr2332   2.008       .  S
O2317     Cr2332   1.982       .  S
O2317      C2318   1.257       .  A
C2318      C2702   1.481       .  S
C2318      O2319   1.265       .  A
O2319     Cr2333   2.013       .  S
O2320     Cr2333   1.976       .  S
O2320      C2321   1.260       .  A
C2321      C2572   1.490       .  S
O2322     Cr2331   1.980       .  S
O2322      C2330   1.260       .  A
O2323     Cr2331   2.021       .  S
O2323      C2324   1.266       .  A
C2324      C2565   1.493       .  S
C2324      O2325   1.258       .  A
O2325     Cr2332   1.979       .  S
O2326     Cr2332   2.004       .  S
O2326      C2327   1.264       .  A
C2327      C2625   1.453       .  S
C2327      O2328   1.255       .  A
O2328     Cr2333   1.947       .  S
O2329     Cr2333   2.032       .  S
O2329      C2330   1.270       .  A
C2330      C2675   1.500       .  S
Cr2331     O2334   1.768       .  S
Cr2332     O2334   1.776       .  S
Cr2333     O2334   1.772       .  S
C2335      N2336   1.358       .  A
C2335      N2340   1.361       .  A
C2335      C2555   1.507       .  S
N2336      C2337   1.358       .  A
C2337      N2338   1.361       .  A
C2337      C2562   1.495       .  S
N2338      C2339   1.362       .  A
C2339      N2340   1.363       .  A
C2339      C2582   1.482       .  S
C2341      N2342   1.366       .  A
C2341      N2346   1.354       .  A
C2341      C2775   1.502       .  S
N2342      C2343   1.365   1_556  A
C2343      N2344   1.357       .  A
C2343      C2542   1.507       .  S
N2344      C2345   1.354       .  A
C2345      N2346   1.351   1_554  A
C2347      N2348   1.364       .  A
C2347      N2352   1.356       .  A
C2347      C2735   1.507       .  S
N2348      C2349   1.366   1_556  A
C2349      N2350   1.357       .  A
C2349      C2522   1.517       .  S
N2350      C2351   1.359       .  A
C2351      N2352   1.359   1_554  A
C2351      C2515   1.482       .  S
C2353      N2354   1.357       .  A
C2353      N2358   1.357       .  A
C2353      C2482   1.466       .  S
N2354      C2355   1.356       .  A
C2355      N2356   1.352       .  A
C2355      C2492   1.470       .  S
N2356      C2357   1.354       .  A
C2357      N2358   1.355       .  A
C2357      C2502   1.459       .  S
O2359     Cr2377   2.027       .  S
O2359      C2367   1.271       .  A
O2360     Cr2377   1.974       .  S
O2360      C2361   1.261       .  A
C2361      C2465   1.486       .  S
C2361      O2362   1.270       .  A
O2363      C2364   1.256       .  A
C2364      C2665   1.490       .  S
C2364      O2365   1.264       .  A
O2366      C2367   1.260       .  A
C2367      C2472   1.493       .  S
O2368     Cr2377   1.978       .  S
O2369     Cr2377   2.011       .  S
C2370      C2545   1.513       .  S
C2370      O2371   1.254       .  A
O2371     Cr2378   1.966       .  S
O2372     Cr2378   2.022       .  S
O2372      C2373   1.272       .  A
C2373      C2505   1.463       .  S
C2373      O2374   1.257       .  A
O2374     Cr2379   1.946   1_655  S
O2375     Cr2379   2.025   1_655  S
O2375      C2376   1.265       .  A
C2376      C2525   1.493       .  S
Cr2377     O2380   1.768       .  S
O2381     Cr2399   2.011       .  S
O2381      C2389   1.265       .  A
O2382     Cr2399   1.954       .  S
O2382      C2383   1.250       .  A
C2383      C2475   1.506       .  S
C2383      O2384   1.268       .  A
O2384     Cr2400   2.028       .  S
O2385     Cr2400   1.984       .  S
O2385      C2386   1.263       .  A
C2386      C2695   1.492       .  S
C2386      O2387   1.264       .  A
O2387     Cr2401   2.003       .  S
O2388     Cr2401   1.986       .  S
O2388      C2389   1.262       .  A
C2389      C2445   1.507       .  S
O2390     Cr2399   1.954       .  S
O2390      C2398   1.254       .  A
O2391     Cr2399   2.029       .  S
O2391      C2392   1.270       .  A
C2392      C2452   1.507       .  S
C2392      O2393   1.255       .  A
O2393     Cr2400   1.970       .  S
O2394     Cr2400   2.004       .  S
O2394      C2395   1.266       .  A
C2395      O2396   1.261       .  A
O2396     Cr2401   1.972       .  S
O2397     Cr2401   2.015       .  S
O2397      C2398   1.268       .  A
C2398      C2535   1.499       .  S
Cr2399     O2402   1.771       .  S
Cr2400     O2402   1.779       .  S
Cr2401     O2402   1.774       .  S
O2403     Cr2421   2.028       .  S
O2403      C2411   1.270       .  A
O2404     Cr2421   1.986       .  S
O2404      C2405   1.263       .  A
C2405      C2442   1.490       .  S
C2405      O2406   1.269       .  A
O2406     Cr2422   2.020       .  S
O2407     Cr2422   1.981       .  S
O2407      C2408   1.258       .  A
C2408      C2552   1.489       .  S
C2408      O2409   1.264       .  A
O2409     Cr2423   2.007       .  S
O2410     Cr2423   1.981       .  S
O2410      C2411   1.261       .  A
C2411      C2462   1.486       .  S
O2412     Cr2421   1.989       .  S
O2412      C2420   1.260       .  A
O2413     Cr2421   2.022       .  S
O2413      C2414   1.267       .  A
C2414      C2512   1.486       .  S
C2414      O2415   1.258       .  A
O2415     Cr2422   1.980       .  S
O2416     Cr2422   2.011       .  S
O2416      C2417   1.269       .  A
C2417      C2485   1.482       .  S
C2417      O2418   1.263       .  A
O2418     Cr2423   1.977       .  S
O2419     Cr2423   2.021       .  S
O2419      C2420   1.264       .  A
C2420      C2432   1.515       .  S
Cr2421     O2424   1.777       .  S
Cr2422     O2424   1.778       .  S
Cr2423     O2424   1.778       .  S
C2425      N2426   1.365       .  A
C2425      N2430   1.362       .  A
C2425      C2712   1.496       .  S
N2426      C2427   1.366   1_556  A
C2427      N2428   1.362       .  A
N2428      C2429   1.360       .  A
C2429      N2430   1.359   1_554  A
C2429      C2435   1.512       .  S
C2431      C2432   1.422       .  A
C2431      C2436   1.419       .  A
C2431     Br2438   1.936       .  S
C2432      C2433   1.417       .  A
C2433      C2434   1.414       .  A
C2433     Br2440   1.936       .  S
C2434      C2435   1.421       .  A
C2434     Br2439   1.936   1_554  S
C2435      C2436   1.422       .  A
C2436     Br2437   1.938       .  S
C2441      C2442   1.408       .  A
C2441      C2446   1.416       .  A
C2441     Br2448   1.932       .  S
C2442      C2443   1.409       .  A
C2443      C2444   1.412       .  A
C2443     Br2450   1.929       .  S
C2444      C2445   1.420       .  A
C2444     Br2449   1.932       .  S
C2445      C2446   1.423       .  A
C2446     Br2447   1.932       .  S
C2451      C2452   1.418       .  A
C2451      C2456   1.418       .  A
C2451     Br2458   1.932       .  S
C2452      C2453   1.423   1_565  A
C2453      C2454   1.411       .  A
C2453     Br2460   1.930       .  S
C2454      C2455   1.410       .  A
C2455      C2456   1.415   1_545  A
C2456     Br2457   1.931   1_554  S
C2461      C2462   1.411       .  A
C2461      C2466   1.416       .  A
C2461     Br2468   1.930       .  S
C2462      C2463   1.409       .  A
C2463      C2464   1.407       .  A
C2463     Br2470   1.920       .  S
C2464      C2465   1.409       .  A
C2464     Br2469   1.933       .  S
C2465      C2466   1.413       .  A
C2466     Br2467   1.924       .  S
C2471      C2472   1.411       .  A
C2471      C2476   1.410       .  A
C2471     Br2478   1.939       .  S
C2472      C2473   1.416       .  A
C2473      C2474   1.413       .  A
C2473     Br2480   1.937       .  S
C2474      C2475   1.422       .  A
C2474     Br2479   1.938       .  S
C2475      C2476   1.429       .  A
C2476     Br2477   1.945       .  S
C2481      C2482   1.404       .  A
C2481      C2486   1.406       .  A
C2481     Br2488   1.931       .  S
C2482      C2483   1.408       .  A
C2483      C2484   1.404       .  A
C2483     Br2490   1.935       .  S
C2484      C2485   1.412       .  A
C2484     Br2489   1.925       .  S
C2485      C2486   1.415       .  A
C2486     Br2487   1.927       .  S
C2491      C2492   1.401       .  A
C2491      C2496   1.406       .  A
C2491     Br2498   1.932       .  S
C2492      C2493   1.409       .  A
C2493      C2494   1.405       .  A
C2493     Br2500   1.935       .  S
C2494      C2495   1.422       .  A
C2494     Br2499   1.939       .  S
C2495      C2496   1.422       .  A
C2501      C2502   1.408       .  A
C2501      C2506   1.402       .  A
C2501     Br2508   1.932       .  S
C2502      C2503   1.403       .  A
C2503      C2504   1.403       .  A
C2503     Br2510   1.927       .  S
C2504      C2505   1.408       .  A
C2504     Br2509   1.926       .  S
C2505      C2506   1.412       .  A
C2506     Br2507   1.936       .  S
C2511      C2512   1.410       .  A
C2511      C2516   1.407       .  A
C2511     Br2518   1.915       .  S
C2512      C2513   1.410       .  A
C2513      C2514   1.414       .  A
C2513     Br2520   1.928       .  S
C2514      C2515   1.413       .  A
C2514     Br2519   1.927       .  S
C2515      C2516   1.409       .  A
C2516     Br2517   1.934       .  S
C2521      C2522   1.431       .  A
C2521      C2526   1.414       .  A
C2521     Br2528   1.938       .  S
C2522      C2523   1.425       .  A
C2523      C2524   1.414       .  A
C2523     Br2530   1.935   1_554  S
C2524      C2525   1.408       .  A
C2525      C2526   1.409       .  A
C2526     Br2527   1.933       .  S
C2531      C2532   1.405       .  A
C2531      C2536   1.410   1_545  A
C2532      C2533   1.405       .  A
C2533      C2534   1.406   1_545  A
C2534      C2535   1.428       .  A
C2534     Br2539   1.937       .  S
C2535      C2536   1.423       .  A
C2536     Br2537   1.934       .  S
C2541      C2542   1.421       .  A
C2541      C2546   1.412       .  A
C2541     Br2548   1.944       .  S
C2542      C2543   1.417       .  A
C2543      C2544   1.417       .  A
C2543     Br2550   1.935   1_554  S
C2544      C2545   1.423       .  A
C2545      C2546   1.426       .  A
C2546     Br2547   1.943       .  S
C2551      C2552   1.407       .  A
C2551      C2556   1.412       .  A
C2551     Br2558   1.935       .  S
C2552      C2553   1.411       .  A
C2553      C2554   1.412       .  A
C2553     Br2560   1.936       .  S
C2554      C2555   1.425       .  A
C2554     Br2559   1.939       .  S
C2555      C2556   1.424       .  A
C2556     Br2557   1.930       .  S
C2561      C2562   1.416       .  A
C2561      C2566   1.414       .  A
C2561     Br2568   1.927       .  S
C2562      C2563   1.415       .  A
C2563      C2564   1.409       .  A
C2563     Br2570   1.937       .  S
C2564      C2565   1.412       .  A
C2564     Br2569   1.921       .  S
C2565      C2566   1.412       .  A
C2566     Br2567   1.932       .  S
C2571      C2572   1.416       .  A
C2571     Br2578   1.937       .  S
C2572      C2573   1.416       .  A
C2573      C2574   1.407       .  A
C2573     Br2580   1.936       .  S
C2574     Br2579   1.933       .  S
C2575      C2576   1.417       .  A
C2576     Br2577   1.937       .  S
C2581      C2582   1.410       .  A
C2581      C2586   1.411       .  A
C2581     Br2588   1.923       .  S
C2582      C2583   1.408       .  A
C2583      C2584   1.407       .  A
C2583     Br2590   1.931       .  S
C2584      C2585   1.411       .  A
C2584     Br2589   1.918       .  S
C2585      C2586   1.410       .  A
C2586     Br2587   1.929       .  S
C2591      C2592   1.409       .  A
C2591      C2596   1.407       .  A
C2591     Br2598   1.931       .  S
C2592      C2593   1.409       .  A
C2593      C2594   1.409       .  A
C2593     Br2600   1.934       .  S
C2594      C2595   1.414       .  A
C2594     Br2599   1.930       .  S
C2595      C2596   1.409       .  A
C2596     Br2597   1.929       .  S
C2601      C2602   1.411       .  A
C2601     Br2608   1.929       .  S
C2602      C2603   1.410       .  A
C2603      C2604   1.409       .  A
C2603     Br2610   1.931       .  S
C2604     Br2609   1.929   1_565  S
C2605      C2606   1.415       .  A
C2606     Br2607   1.931       .  S
C2611      C2612   1.413       .  A
C2611      C2616   1.401       .  A
C2611     Br2618   1.933       .  S
C2612      C2613   1.414       .  A
C2613      C2614   1.396       .  A
C2613     Br2620   1.937       .  S
C2614      C2615   1.407       .  A
C2614     Br2619   1.931       .  S
C2615      C2616   1.406       .  A
C2616     Br2617   1.935       .  S
C2621      C2622   1.402       .  A
C2621      C2626   1.403       .  A
C2621     Br2628   1.928       .  S
C2622      C2623   1.407       .  A
C2623      C2624   1.395       .  A
C2623     Br2630   1.932       .  S
C2624      C2625   1.406       .  A
C2624     Br2629   1.933       .  S
C2625      C2626   1.408       .  A
C2626     Br2627   1.924       .  S
C2631      C2632   1.403       .  A
C2631      C2636   1.397       .  A
C2631     Br2638   1.930       .  S
C2632      C2633   1.404       .  A
C2633      C2634   1.396       .  A
C2633     Br2640   1.931       .  S
C2634      C2635   1.406       .  A
C2634     Br2639   1.927       .  S
C2635      C2636   1.405       .  A
C2636     Br2637   1.928       .  S
C2641      C2646   1.415       .  A
C2641     Br2648   1.928       .  S
C2642      C2643   1.413       .  A
C2643      C2644   1.407       .  A
C2643     Br2650   1.925       .  S
C2644     Br2649   1.934       .  S
C2645      C2646   1.410   1_455  A
C2646     Br2647   1.928       .  S
C2651      C2656   1.416       .  A
C2651     Br2658   1.935       .  S
C2652      C2653   1.432       .  A
C2653      C2654   1.415       .  A
C2653     Br2660   1.941       .  S
C2654     Br2659   1.936       .  S
C2655      C2656   1.411       .  A
C2656     Br2657   1.932       .  S
C2661      C2662   1.418       .  A
C2661      C2666   1.412       .  A
C2661     Br2668   1.934   1_455  S
C2663      C2664   1.415       .  A
C2663     Br2670   1.933       .  S
C2664      C2665   1.410       .  A
C2664     Br2669   1.930       .  S
C2666     Br2667   1.935   1_455  S
C2671      C2672   1.434       .  A
C2671      C2676   1.417       .  A
C2671     Br2678   1.939       .  S
C2672      C2673   1.434       .  A
C2673      C2674   1.416       .  A
C2673     Br2680   1.941       .  S
C2674      C2675   1.408       .  A
C2674     Br2679   1.939       .  S
C2675      C2676   1.410       .  A
C2676     Br2677   1.932       .  S
C2681      C2682   1.414       .  A
C2681      C2686   1.410       .  A
C2681     Br2688   1.929       .  S
C2682      C2683   1.413       .  A
C2683      C2684   1.410       .  A
C2683     Br2690   1.927       .  S
C2684      C2685   1.410       .  A
C2684     Br2689   1.927       .  S
C2685      C2686   1.408       .  A
C2686     Br2687   1.930       .  S
C2691      C2692   1.406       .  A
C2691      C2696   1.407       .  A
C2691     Br2698   1.936       .  S
C2692      C2693   1.409       .  A
C2693      C2694   1.413       .  A
C2693     Br2700   1.925       .  S
C2694      C2695   1.415       .  A
C2694     Br2699   1.931       .  S
C2695      C2696   1.421       .  A
C2696     Br2697   1.934       .  S
C2701      C2702   1.408       .  A
C2701      C2706   1.414       .  A
C2701     Br2708   1.928       .  S
C2702      C2703   1.408       .  A
C2703      C2704   1.406       .  A
C2703     Br2710   1.930       .  S
C2704      C2705   1.409       .  A
C2704     Br2709   1.922       .  S
C2705      C2706   1.416       .  A
C2706     Br2707   1.928       .  S
C2711      C2712   1.411       .  A
C2711      C2716   1.410       .  A
C2711     Br2718   1.934       .  S
C2712      C2713   1.416       .  A
C2713      C2714   1.419       .  A
C2713     Br2720   1.928       .  S
C2714      C2715   1.412       .  A
C2714     Br2719   1.927       .  S
C2715      C2716   1.413       .  A
C2716     Br2717   1.925       .  S
C2721      C2722   1.410       .  A
C2721      C2726   1.405       .  A
C2721     Br2728   1.910       .  S
C2722      C2723   1.412       .  A
C2723      C2724   1.415       .  A
C2723     Br2730   1.922       .  S
C2724      C2725   1.411       .  A
C2724     Br2729   1.930       .  S
C2725      C2726   1.405       .  A
C2726     Br2727   1.934       .  S
C2731      C2732   1.414       .  A
C2731      C2736   1.415       .  A
C2731     Br2738   1.926       .  S
C2732      C2733   1.417       .  A
C2733      C2734   1.413       .  A
C2733     Br2740   1.940       .  S
C2734      C2735   1.421       .  A
C2734     Br2739   1.938       .  S
C2735      C2736   1.419       .  A
C2736     Br2737   1.935       .  S
C2741      C2742   1.428       .  A
C2741      C2746   1.417       .  A
C2741     Br2748   1.936       .  S
C2742      C2743   1.419       .  A
C2743      C2744   1.412       .  A
C2743     Br2750   1.931       .  S
C2744      C2745   1.412       .  A
C2744     Br2749   1.922       .  S
C2745      C2746   1.414       .  A
C2746     Br2747   1.937       .  S
C2751      C2752   1.404       .  A
C2751      C2756   1.402       .  A
C2751     Br2758   1.933       .  S
C2752      C2753   1.417       .  A
C2753      C2754   1.416       .  A
C2753     Br2760   1.930       .  S
C2754      C2755   1.419       .  A
C2754     Br2759   1.934       .  S
C2755      C2756   1.417       .  A
C2756     Br2757   1.922       .  S
C2761      C2762   1.421       .  A
C2761      C2766   1.417       .  A
C2761     Br2768   1.939       .  S
C2762      C2763   1.420       .  A
C2763      C2764   1.414       .  A
C2763     Br2770   1.935       .  S
C2764      C2765   1.417       .  A
C2764     Br2769   1.937       .  S
C2765      C2766   1.423       .  A
C2766     Br2767   1.939       .  S
C2771      C2772   1.410       .  A
C2771      C2776   1.412       .  A
C2771     Br2778   1.928       .  S
C2772      C2773   1.410       .  A
C2773      C2774   1.410       .  A
C2773     Br2780   1.937       .  S
C2774      C2775   1.426       .  A
C2774     Br2779   1.941       .  S
C2775      C2776   1.420       .  A
C2776     Br2777   1.935       .  S
C2781      C2782   1.426       .  A
C2781      C2786   1.414       .  A
C2781     Br2788   1.932       .  S
C2782      C2783   1.422       .  A
C2783      C2784   1.413       .  A
C2783     Br2790   1.937       .  S
C2784      C2785   1.414       .  A
C2784     Br2789   1.937       .  S
C2785      C2786   1.413       .  A
C2791      C2792   1.417       .  A
C2791      C2796   1.405       .  A
C2791     Br2798   1.927       .  S
C2792      C2793   1.417       .  A
C2793      C2794   1.409       .  A
C2793     Br2800   1.920       .  S
C2794      C2795   1.403       .  A
C2794     Br2799   1.931       .  S
C2795      C2796   1.410       .  A
C2796     Br2797   1.939       .  S
C2801      C2806   1.407       .  A
C2801     Br2808   1.933       .  S
C2802      C2803   1.408       .  A
C2803      C2804   1.402       .  A
C2803     Br2810   1.928       .  S
C2804     Br2809   1.941       .  S
C2805      C2806   1.417       .  A
C2806     Br2807   1.933       .  S
C2811      C2812   1.416   1_545  A
C2812      C2813   1.419       .  A
C2813      C2814   1.407       .  A
C2813     Br2820   1.939       .  S
C2814     Br2819   1.925       .  S
C2815      C2816   1.409       .  A
C2816     Br2817   1.930       .  S
C2821      C2822   1.409       .  A
C2821     Br2828   1.928       .  S
C2823      C2824   1.404       .  A
C2823     Br2830   1.934       .  S
C2824      C2825   1.422       .  A
C2824     Br2829   1.931       .  S
C2825      C2826   1.419       .  A
C2826     Br2827   1.929       .  S
C2831      C2832   1.408       .  A
C2831      C2836   1.411       .  A
C2831     Br2838   1.931       .  S
C2832      C2833   1.412       .  A
C2833      C2834   1.417       .  A
C2833     Br2840   1.927       .  S
C2834      C2835   1.414       .  A
C2834     Br2839   1.930       .  S
C2835      C2836   1.415       .  A
C2836     Br2837   1.927       .  S
C2841      C2842   1.423       .  A
C2841      C2846   1.417       .  A
C2842      C2843   1.421       .  A
C2843      C2844   1.420       .  A
C2843     Br2850   1.934       .  S
C2844      C2845   1.417       .  A
C2844     Br2849   1.933       .  S
C2845      C2846   1.407       .  A
C2851      C2852   1.420       .  A
C2851      C2856   1.410       .  A
C2851     Br2858   1.938       .  S
C2852      C2853   1.418       .  A
C2853      C2854   1.408       .  A
C2853     Br2860   1.935       .  S
C2854      C2855   1.412       .  A
C2854     Br2859   1.937       .  S
C2855      C2856   1.414       .  A
C2856     Br2857   1.934       .  S
C2861      C2862   1.414       .  A
C2861     Br2868   1.927       .  S
C2862      C2863   1.417       .  A
C2863      C2864   1.411   1_655  A
C2863     Br2870   1.929       .  S
C2864     Br2869   1.930       .  S
C2865      C2866   1.405       .  A
C2866     Br2867   1.930       .  S
C2871      C2872   1.416       .  A
C2871      C2876   1.410       .  A
C2872      C2873   1.415       .  A
C2873      C2874   1.407       .  A
C2873     Br2880   1.936       .  S
C2874      C2875   1.411       .  A
C2874     Br2879   1.929       .  S
C2875      C2876   1.406       .  A
