geometry optimzed in LAMMPS
_audit_creation_date              2020-11-30 
_audit_creation_method            'lammps2cif' 
_symmetry_space_group_name_H-M    'P1' 
_symmetry_Int_Tables_number       1 
_symmetry_cell_setting            triclinic 
loop_ 
_symmetry_equiv_pos_as_xyz 
  x,y,z 
_cell_length_a                    38.2480885733004 
_cell_length_b                    53.06661492890817 
_cell_length_c                    36.513077869602384 
_cell_angle_alpha                 89.64548587385046 
_cell_angle_beta                  90.41360058140847 
_cell_angle_gamma                 89.81657188888703 
loop_ 
_atom_site_label 
_atom_site_type_symbol 
_atom_site_fract_x 
_atom_site_fract_y 
_atom_site_fract_z 
_atom_site_charge 
C1          C  0.16605593  0.32741654  0.24768266     0.02950
C2          C  0.15313568  0.35219907  0.25037836    -0.13200
C3          C  0.11720170  0.35670500  0.25220330     0.00450
C4          C  0.09394436  0.33653873  0.25145811    -0.11730
C5          C  0.10609621  0.31173426  0.24861640     0.02940
C6          C  0.14231032  0.30714478  0.24653893    -0.11150
H7          H  0.17104492  0.36798418  0.25135246     0.08540
H8          H  0.06608573  0.34021617  0.25296756     0.06070
H9          H  0.15189393  0.28798833  0.24424459     0.05910
C10         C  0.16479266  0.64029453  0.25974222     0.02950
C11         C  0.15409918  0.61532205  0.25481266    -0.13200
C12         C  0.11915341  0.61008871  0.24732825     0.00450
C13         C  0.09529101  0.62985289  0.24335456    -0.11730
C14         C  0.10413253  0.65452584  0.25372660     0.02940
C15         C  0.13977668  0.65976370  0.26071119    -0.11150
H16         H  0.17293203  0.60004173  0.25659686     0.08540
H17         H  0.06915995  0.62545418  0.23402993     0.06070
H18         H  0.14842491  0.67860100  0.26723891     0.05910
C19         C  0.31392878  0.64213022  0.25330793     0.02950
C20         C  0.32891005  0.61798929  0.25701074    -0.13200
C21         C  0.36512563  0.61463766  0.25380454     0.00450
C22         C  0.38625865  0.63580983  0.24799229    -0.11730
C23         C  0.37178651  0.66008229  0.24539224     0.02940
C24         C  0.33547679  0.66311888  0.24749904    -0.11150
H25         H  0.31236000  0.60188599  0.26253540     0.08540
H26         H  0.41435016  0.63343688  0.24612403     0.06070
H27         H  0.32402543  0.68176627  0.24505762     0.05910
O28         O  0.45045902  0.45814724  0.23506178    -0.73120
O29         O  0.02573636  0.50979647  0.22678884    -0.74100
O30         O  0.02412547  0.45632388  0.23061442    -0.62720
O31         O  0.45219827  0.51187978  0.23191489    -0.71130
O32         O  0.45686376  0.51320123  0.29245093    -0.70690
O33         O  0.02787303  0.45784600  0.29098503    -0.61940
O34         O  0.03032933  0.51115935  0.28710743    -0.74450
O35         O  0.45413984  0.45931810  0.29557711    -0.73230
Cu36       Cu  0.48792395  0.48396053  0.22901847     1.04560
Cu37       Cu  0.49236311  0.48541720  0.29363166     1.04330
C38         C  0.44067979  0.45017278  0.26637751     0.93070
C39         C  0.03985951  0.51893476  0.25547961     0.92210
C40         C  0.03715989  0.44807002  0.26077287     0.84360
C41         C  0.44424126  0.52193312  0.26249346     0.90630
C42         C  0.31629442  0.32853521  0.25268372     0.02950
C43         C  0.32900288  0.35295145  0.25932520    -0.13200
C44         C  0.36487263  0.35716073  0.26399746     0.00450
C45         C  0.38814800  0.33684659  0.26176007    -0.11730
C46         C  0.37592726  0.31237309  0.25579126     0.02940
C47         C  0.33987461  0.30815059  0.25153547    -0.11150
H48         H  0.31096272  0.36870696  0.26074175     0.08540
H49         H  0.41602222  0.34012921  0.26429549     0.06070
H50         H  0.33034842  0.28926232  0.24646614     0.05910
C51         C  0.49067778  0.23821162  0.24870177    -0.02670
C52         C  0.48917801  0.72974484  0.24662132    -0.02670
N53         N  0.49662924  0.14759056  0.07334561    -0.27470
N54         N  0.49383933  0.16918483  0.05521817    -0.35330
C55         C  0.49340648  0.18821512  0.07941100     0.00870
C56         C  0.49675229  0.17810521  0.11426059     0.06900
C57         C  0.49855874  0.15234047  0.10945262    -0.06200
H58         H  0.49047888  0.20793337  0.07220473     0.07560
H59         H  0.49992544  0.13805312  0.13068267     0.08760
Cu60       Cu  0.49024538  0.17181851  0.49846389     0.44170
Cu61       Cu  0.49528623  0.11241135  0.04881057     0.41990
Cu62       Cu  0.48695019  0.11201989  0.45069026     0.43880
N63         N  0.48668628  0.16860657  0.44182538    -0.34860
N64         N  0.48443273  0.14679988  0.42460950    -0.29110
C65         C  0.48263600  0.15109329  0.38829411    -0.05210
C66         C  0.48395688  0.17679538  0.38239390     0.07010
C67         C  0.48689193  0.18733956  0.41682094     0.00800
H68         H  0.48189725  0.13654589  0.36768076     0.08450
H69         H  0.48957363  0.20714360  0.42317693     0.07530
N70         N  0.49106393  0.07946701  0.48218136    -0.36300
N71         N  0.49346154  0.07954480  0.01827451    -0.28490
C72         C  0.49450366  0.05558619  0.03055944    -0.03720
C73         C  0.49340866  0.03953936  0.50067549     0.04890
C74         C  0.49089571  0.05548611  0.47050529     0.02980
H75         H  0.49493273  0.05039104  0.05920429     0.08080
H76         H  0.48890296  0.05006014  0.44207579     0.06920
N77         N  0.49226662  0.82325942  0.42149989    -0.27470
N78         N  0.50009216  0.80230615  0.43943654    -0.35330
C79         C  0.50286960  0.78334896  0.41548415     0.00870
C80         C  0.49626556  0.79262564  0.38046563     0.06900
C81         C  0.48912935  0.81805519  0.38562015    -0.06200
H82         H  0.50883875  0.76409491  0.42326659     0.07560
H83         H  0.48099388  0.83175501  0.36529269     0.08760
Cu84       Cu  0.50317153  0.79981853  0.49581541     0.44170
Cu85       Cu  0.48717186  0.85793280  0.44697393     0.41990
Cu86       Cu  0.48801582  0.85730792  0.04641532     0.43880
N87         N  0.49924869  0.80114248  0.05213933    -0.34860
N88         N  0.49308507  0.82194411  0.07078874    -0.29110
C89         C  0.49111565  0.81605040  0.10662200    -0.05210
C90         C  0.49678444  0.79038677  0.11063064     0.07010
C91         C  0.50141478  0.78153294  0.07547263     0.00800
H92         H  0.48612282  0.82945793  0.12817634     0.08190
H93         H  0.50530200  0.76216801  0.06726934     0.07530
N94         N  0.48646264  0.89010985  0.01492449    -0.36300
N95         N  0.48649229  0.89028161  0.47872211    -0.28490
C96         C  0.48682742  0.91430333  0.46673814    -0.03720
C97         C  0.48639734  0.93014596  0.49679688     0.04890
C98         C  0.48657702  0.91405396  0.02688174     0.02980
H99         H  0.48837284  0.91970871  0.43821982     0.08080
H100        H  0.48695608  0.91936821  0.05542102     0.06920
C101        C  0.47170310  0.99958739  0.47352910    -0.09340
C102        C  0.49223179  0.01150347  0.50035085     0.06860
C103        C  0.01102324  0.99631252  0.02568174    -0.03100
C104        C  0.00843498  0.97000153  0.02408557    -0.07550
C105        C  0.48788799  0.95813424  0.49725491     0.05980
C106        C  0.46930046  0.97330249  0.47180082    -0.02580
Br107      Br  0.43801187  0.95971206  0.43569339    -0.02270
H108        H  0.45670900  0.01080331  0.45411589     0.09890
H109        H  0.02332730  0.95870540  0.04349800     0.07910
Br110      Br  0.04293794  0.00981022  0.06125794    -0.02700
C111        C  0.99869882  0.77235838  0.28019017    -0.09340
C112        C  0.49030851  0.74634438  0.28222779     0.06860
C113        C  0.48595889  0.73618343  0.31837615    -0.03100
C114        C  0.48710434  0.75184747  0.34896262    -0.07550
C115        C  0.49460463  0.77757485  0.34616745     0.05980
C116        C  0.00131882  0.78765319  0.31115811    -0.02580
Br117      Br  0.01801137  0.82130807  0.30305466    -0.02270
H118        H  0.00520806  0.78118153  0.25447277     0.09890
H119        H  0.48203027  0.74354717  0.37552766     0.07910
Br120      Br  0.47724763  0.70147967  0.33085136    -0.02700
C121        C  0.01845778  0.74246637  0.18480615    -0.09340
C122        C  0.49160371  0.74625271  0.21080321     0.06860
C123        C  0.46595833  0.76505468  0.20170027    -0.03100
C124        C  0.46872866  0.77936367  0.16952311    -0.07550
C125        C  0.49588839  0.77541737  0.14484391     0.05980
C126        C  0.02105572  0.75687324  0.15287106    -0.02580
Br127      Br  0.06097335  0.75105510  0.12240632    -0.02270
H128        H  0.03753614  0.72766346  0.18798582     0.09890
H129        H  0.44901421  0.79351410  0.16339003     0.07910
Br130      Br  0.42638128  0.77353181  0.23143927    -0.02700
C131        C  0.46297670  0.20390088  0.28858129    -0.09340
C132        C  0.49243312  0.21934555  0.28192632     0.06860
C133        C  0.02212076  0.21517681  0.30547076    -0.03100
C134        C  0.01815718  0.20191920  0.33839466    -0.07550
C135        C  0.48683696  0.18995352  0.34693680     0.05980
C136        C  0.45969684  0.18986946  0.32094012    -0.02580
Br137      Br  0.41664918  0.17248666  0.32964068    -0.02270
H138        H  0.44107937  0.20423687  0.26975291     0.09890
H139        H  0.04026359  0.20001177  0.35694213     0.07910
Br140      Br  0.07028927  0.22222090  0.29406220    -0.02700
C141        C  0.01883615  0.20540944  0.20711249    -0.09340
C142        C  0.48917431  0.22058919  0.21439394     0.06860
C143        C  0.45946107  0.21696071  0.19078941    -0.03100
C144        C  0.46323199  0.20388890  0.15786641    -0.07550
C145        C  0.49441076  0.19168351  0.14922259     0.05980
C146        C  0.02187452  0.19156795  0.17482162    -0.02580
Br147      Br  0.06494825  0.17415652  0.16584851    -0.02270
H148        H  0.04088320  0.20547813  0.22572323     0.09890
H149        H  0.44099678  0.20217864  0.13949987     0.07910
Br150      Br  0.41135895  0.22438243  0.20210542    -0.02700
C151        C  0.42476273  0.29204511  0.22322154    -0.09340
C152        C  0.40175599  0.29178688  0.25269582     0.06860
C153        C  0.40657451  0.27395339  0.28066237    -0.03100
C154        C  0.43460951  0.25701154  0.27926347    -0.07550
C155        C  0.45845280  0.25662206  0.24952342     0.05980
C156        C  0.45251346  0.27491134  0.22106565    -0.02580
Br157      Br  0.47932053  0.27774860  0.17690327    -0.02270
H158        H  0.42120478  0.30598180  0.20167412     0.09890
H159        H  0.43816144  0.24525386  0.30309225     0.07910
Br160      Br  0.37704248  0.27328624  0.32291420    -0.02700
C161        C  0.41812109  0.41220776  0.29854243    -0.09340
C162        C  0.41562530  0.42895152  0.26862937     0.06860
C163        C  0.39197656  0.42335741  0.23983628    -0.03100
C164        C  0.37389107  0.40047466  0.23996567    -0.07550
C165        C  0.37882167  0.38291579  0.26836769     0.05980
C166        C  0.40002032  0.38934681  0.29854837    -0.02580
Br167      Br  0.40549261  0.36727745  0.34006848    -0.02270
H168        H  0.43561033  0.41623773  0.32119246     0.09890
H169        H  0.35713612  0.39586764  0.21693511     0.07910
Br170      Br  0.38312234  0.44592053  0.19944820    -0.02700
C171        C  0.42021419  0.68104236  0.21306457    -0.09340
C172        C  0.39559377  0.68180956  0.24105672     0.06860
C173        C  0.39756533  0.70124700  0.26692703    -0.03100
C174        C  0.42574340  0.71797618  0.26631186    -0.07550
C175        C  0.45390533  0.71502560  0.24167593     0.05980
C176        C  0.44891120  0.69720155  0.21280004    -0.02580
Br177      Br  0.48168338  0.69026369  0.17444684    -0.02270
H178        H  0.41830286  0.66649857  0.19242656     0.09890
H179        H  0.42597199  0.73254042  0.28677610     0.07910
Br180      Br  0.36506315  0.70420073  0.30648811    -0.02700
C181        C  0.41005182  0.58733047  0.28316503    -0.09340
C182        C  0.38192072  0.58953333  0.25844709     0.06860
C183        C  0.37295482  0.56857987  0.23666231    -0.03100
C184        C  0.39286765  0.54637952  0.23910077    -0.07550
C185        C  0.42164795  0.54456205  0.26308313     0.05980
C186        C  0.43003618  0.56533007  0.28541900    -0.02580
Br187      Br  0.47087386  0.56618258  0.31636909    -0.02270
H188        H  0.41740659  0.60327012  0.29993187     0.09890
H189        H  0.38632896  0.53065416  0.22156948     0.07910
Br190      Br  0.33592348  0.56975613  0.20095133    -0.02700
C191        C  0.21880031  0.65542262  0.23057892    -0.09340
C192        C  0.20245574  0.64558333  0.26175938     0.06860
C193        C  0.22293982  0.63679805  0.29132172    -0.03100
C194        C  0.25933820  0.63675451  0.28864174    -0.07550
C195        C  0.27574459  0.64527775  0.25663240     0.05980
C196        C  0.25522065  0.65520240  0.22768738    -0.02580
Br197      Br  0.27515034  0.66592644  0.18208434    -0.02270
H198        H  0.20311578  0.66173917  0.20744544     0.09890
H199        H  0.27489109  0.62936334  0.31119054     0.07910
Br200      Br  0.20216822  0.62385931  0.33519110    -0.02700
C201        C  0.08317755  0.69985979  0.25138052    -0.09340
C202        C  0.07592430  0.67414179  0.25673913     0.06860
C203        C  0.04105081  0.66758505  0.26484913    -0.03100
C204        C  0.01428298  0.68497073  0.25912911    -0.07550
C205        C  0.02063204  0.71073644  0.25144132     0.05980
C206        C  0.05655608  0.71815498  0.25177770    -0.02580
Br207      Br  0.07253878  0.75248980  0.25079307    -0.02270
H208        H  0.10966364  0.70611745  0.24694059     0.09890
H209        H  0.98821124  0.67802896  0.26365866     0.07910
Br210      Br  0.02760879  0.63688900  0.28960769    -0.02700
C211        C  0.07618657  0.55201512  0.28472483    -0.09340
C212        C  0.06587812  0.53961136  0.25247493     0.06860
C213        C  0.07833809  0.54889117  0.21840594    -0.03100
C214        C  0.09769228  0.57123552  0.21721521    -0.07550
C215        C  0.10570135  0.58422549  0.24935097     0.05980
C216        C  0.09583483  0.57408105  0.28335047    -0.02580
Br217      Br  0.10600126  0.59096872  0.32853690    -0.02270
H218        H  0.06755015  0.54530854  0.31121036     0.09890
H219        H  0.10545955  0.57900097  0.19101224     0.07910
Br220      Br  0.06979410  0.53281790  0.17219888    -0.02700
C221        C  0.22310664  0.33727265  0.21926892    -0.09340
C222        C  0.20443339  0.32353252  0.24561663     0.06860
C223        C  0.22315740  0.30891053  0.27164381    -0.03100
C224        C  0.25982626  0.30952231  0.27219633    -0.07550
C225        C  0.27825753  0.32471531  0.24738723     0.05980
C226        C  0.25959416  0.33796684  0.21994696    -0.02580
Br227      Br  0.28263075  0.35756777  0.18295585    -0.02270
H228        H  0.20912497  0.34825768  0.19875095     0.09890
H229        H  0.27391901  0.29923866  0.29337744     0.07910
Br230      Br  0.20029992  0.28996947  0.30941847    -0.02700
C231        C  0.05696475  0.29003715  0.27875059    -0.09340
C232        C  0.08002685  0.29118168  0.24930677     0.06860
C233        C  0.07474871  0.27505912  0.21953910    -0.03100
C234        C  0.04655839  0.25828824  0.21949659    -0.07550
C235        C  0.02276987  0.25658217  0.24918730     0.05980
C236        C  0.02875826  0.27340042  0.27911876    -0.02580
Br237      Br  0.00144665  0.27479665  0.32308747    -0.02270
H238        H  0.06073315  0.30262261  0.30170552     0.09890
H239        H  0.04279279  0.24772302  0.19473519     0.07910
Br240      Br  0.10337696  0.27674590  0.17665581    -0.02700
C241        C  0.09097050  0.39044986  0.28927183    -0.09340
C242        C  0.10301304  0.38236786  0.25524298     0.06860
C243        C  0.09645874  0.39712971  0.22392468    -0.03100
C244        C  0.07632771  0.41905573  0.22665508    -0.07550
C245        C  0.06230530  0.42664043  0.26043377     0.05980
C246        C  0.07093190  0.41239793  0.29231779    -0.02580
Br247      Br  0.05465921  0.42009739  0.34069211    -0.02270
H248        H  0.09588219  0.37895021  0.31340682     0.09890
H249        H  0.07066675  0.42970589  0.20191588     0.07910
Br250      Br  0.11233592  0.38696969  0.17653019    -0.02700
C251        C  0.16605593  0.32741654  0.74768264     0.02950
C252        C  0.15313567  0.35219908  0.75037833    -0.13200
C253        C  0.11720170  0.35670500  0.75220325     0.00450
C254        C  0.09394436  0.33653874  0.75145807    -0.11730
C255        C  0.10609620  0.31173426  0.74861637     0.02940
C256        C  0.14231032  0.30714479  0.74653892    -0.11150
H257        H  0.17104492  0.36798419  0.75135242     0.08540
H258        H  0.06608573  0.34021617  0.75296751     0.06070
H259        H  0.15189393  0.28798834  0.74424459     0.05910
C260        C  0.16479260  0.64029454  0.75974200     0.02950
C261        C  0.15409913  0.61532207  0.75481238    -0.13200
C262        C  0.11915335  0.61008874  0.74732797     0.00450
C263        C  0.09529095  0.62985292  0.74335431    -0.11730
C264        C  0.10413248  0.65452586  0.75372642     0.02940
C265        C  0.13977663  0.65976371  0.76071102    -0.11150
H266        H  0.17293197  0.60004174  0.75659656     0.08540
H267        H  0.06915990  0.62545422  0.73402968     0.06070
H268        H  0.14842486  0.67860100  0.76723878     0.05910
C269        C  0.31392873  0.64213020  0.75330781     0.02950
C270        C  0.32891000  0.61798926  0.75701062    -0.13200
C271        C  0.36512558  0.61463763  0.75380444     0.00450
C272        C  0.38625861  0.63580980  0.74799220    -0.11730
C273        C  0.37178647  0.66008226  0.74539216     0.02940
C274        C  0.33547675  0.66311886  0.74749894    -0.11150
H275        H  0.31235994  0.60188596  0.76253526     0.08540
H276        H  0.41435012  0.63343684  0.74612395     0.06070
H277        H  0.32402540  0.68176624  0.74505754     0.05910
O278        O  0.45045900  0.45814722  0.73506175    -0.73120
O279        O  0.02573631  0.50979645  0.72678868    -0.74100
O280        O  0.02412544  0.45632387  0.73061433    -0.62720
O281        O  0.45219822  0.51187976  0.73191480    -0.71130
O282        O  0.45686375  0.51320123  0.79245084    -0.70690
O283        O  0.02787306  0.45784603  0.79098493    -0.61940
O284        O  0.03032932  0.51115937  0.78710726    -0.74450
O285        O  0.45413987  0.45931810  0.79557708    -0.73230
Cu286      Cu  0.48792391  0.48396051  0.72901838     1.04560
Cu287      Cu  0.49236312  0.48541721  0.79363157     1.04330
C288        C  0.44067980  0.45017277  0.76637750     0.93070
C289        C  0.03985947  0.51893477  0.75547942     0.92210
C290        C  0.03715989  0.44807003  0.76077278     0.84360
C291        C  0.44424122  0.52193310  0.76249338     0.90630
C292        C  0.31629442  0.32853521  0.75268377     0.02950
C293        C  0.32900288  0.35295144  0.75932526    -0.13200
C294        C  0.36487263  0.35716073  0.76399752     0.00450
C295        C  0.38814800  0.33684658  0.76176012    -0.11730
C296        C  0.37592726  0.31237309  0.75579130     0.02940
C297        C  0.33987460  0.30815059  0.75153551    -0.11150
H298        H  0.31096272  0.36870696  0.76074181     0.08540
H299        H  0.41602222  0.34012920  0.76429554     0.06070
H300        H  0.33034841  0.28926232  0.74646617     0.05910
C301        C  0.49067778  0.23821162  0.74870177    -0.02670
C302        C  0.48917794  0.72974484  0.74662132    -0.02670
N303        N  0.49662923  0.14759056  0.57334561    -0.27470
N304        N  0.49383932  0.16918483  0.55521817    -0.35330
C305        C  0.49340646  0.18821512  0.57941100     0.00870
C306        C  0.49675228  0.17810521  0.61426059     0.06900
C307        C  0.49855873  0.15234046  0.60945262    -0.06200
H308        H  0.49047887  0.20793337  0.57220473     0.07560
H309        H  0.49992544  0.13805312  0.63068267     0.08760
Cu310      Cu  0.49024540  0.17181851  0.99846389     0.44170
Cu311      Cu  0.49528622  0.11241134  0.54881057     0.41990
Cu312      Cu  0.48695024  0.11201989  0.95069026     0.43880
N313        N  0.48668630  0.16860657  0.94182537    -0.34860
N314        N  0.48443277  0.14679988  0.92460950    -0.29110
C315        C  0.48263604  0.15109328  0.88829411    -0.05210
C316        C  0.48395691  0.17679538  0.88239390     0.07010
C317        C  0.48689194  0.18733956  0.91682094     0.00800
H318        H  0.48189729  0.13654589  0.86768076     0.08450
H319        H  0.48957364  0.20714359  0.92317693     0.07530
N320        N  0.49106396  0.07946701  0.98218137    -0.36300
N321        N  0.49346151  0.07954480  0.51827451    -0.28490
C322        C  0.49450365  0.05558618  0.53055943    -0.03720
C323        C  0.49340868  0.03953936  0.00067551     0.04890
C324        C  0.49089574  0.05548611  0.97050530     0.02980
H325        H  0.49493274  0.05039104  0.55920428     0.08080
H326        H  0.48890300  0.05006014  0.94207580     0.06920
N327        N  0.49226652  0.82325943  0.92149989    -0.27470
N328        N  0.50009209  0.80230617  0.93943652    -0.35330
C329        C  0.50286952  0.78334899  0.91548412     0.00870
C330        C  0.49626544  0.79262566  0.88046561     0.06900
C331        C  0.48912922  0.81805521  0.88562014    -0.06200
H332        H  0.50883870  0.76409493  0.92326655     0.07560
H333        H  0.48099372  0.83175503  0.86529270     0.08760
Cu334      Cu  0.50317149  0.79981853  0.99581538     0.44170
Cu335      Cu  0.48717178  0.85793281  0.94697395     0.41990
Cu336      Cu  0.48801583  0.85730794  0.54641530     0.43880
N337        N  0.49924873  0.80114250  0.55213937    -0.34860
N338        N  0.49308508  0.82194413  0.57078876    -0.29110
C339        C  0.49111564  0.81605044  0.60662202    -0.05210
C340        C  0.49678444  0.79038682  0.61063068     0.07010
C341        C  0.50141483  0.78153297  0.57547268     0.00800
H342        H  0.48612277  0.82945797  0.62817634     0.08190
H343        H  0.50530207  0.76216803  0.56726941     0.07530
N344        N  0.48646266  0.89010986  0.51492446    -0.36300
N345        N  0.48649224  0.89028161  0.97872214    -0.28490
C346        C  0.48682737  0.91430333  0.96673817    -0.03720
C347        C  0.48639731  0.93014596  0.99679691     0.04890
C348        C  0.48657704  0.91405396  0.52688170     0.02980
H349        H  0.48837279  0.91970872  0.93821986     0.08080
H350        H  0.48695609  0.91936822  0.55542098     0.06920
C351        C  0.47170311  0.99958739  0.97352912    -0.09340
C352        C  0.49223179  0.01150347  0.00035087     0.06860
C353        C  0.01102326  0.99631252  0.52568170    -0.03100
C354        C  0.00843501  0.97000153  0.52408552    -0.07550
C355        C  0.48788797  0.95813424  0.99725494     0.05980
C356        C  0.46930046  0.97330250  0.97180085    -0.02580
Br357      Br  0.43801188  0.95971207  0.93569340    -0.02270
H358        H  0.45670903  0.01080332  0.95411590     0.09890
H359        H  0.02332735  0.95870540  0.54349795     0.07910
Br360      Br  0.04293798  0.00981023  0.56125788    -0.02700
C361        C  0.99869864  0.77235840  0.78019014    -0.09340
C362        C  0.49030842  0.74634439  0.78222777     0.06860
C363        C  0.48595885  0.73618344  0.81837614    -0.03100
C364        C  0.48710429  0.75184748  0.84896261    -0.07550
C365        C  0.49460450  0.77757487  0.84616742     0.05980
C366        C  0.00131862  0.78765322  0.81115807    -0.02580
Br367      Br  0.01801104  0.82130813  0.80305458    -0.02270
H368        H  0.00520784  0.78118157  0.75447274     0.09890
H369        H  0.48203027  0.74354717  0.87552765     0.07910
Br370      Br  0.47724771  0.70147967  0.83085135    -0.02700
C371        C  0.01845778  0.74246644  0.68480621    -0.09340
C372        C  0.49160365  0.74625272  0.71080321     0.06860
C373        C  0.46595822  0.76505465  0.70170023    -0.03100
C374        C  0.46872857  0.77936365  0.66952308    -0.07550
C375        C  0.49588838  0.77541742  0.64484395     0.05980
C376        C  0.02105575  0.75687334  0.65287115    -0.02580
Br377      Br  0.06097351  0.75105532  0.62240653    -0.02270
H378        H  0.03753618  0.72766355  0.68798589     0.09890
H379        H  0.44901408  0.79351405  0.66338996     0.07910
Br380      Br  0.42638109  0.77353171  0.73143915    -0.02700
C381        C  0.46297671  0.20390087  0.78858129    -0.09340
C382        C  0.49243313  0.21934555  0.78192632     0.06860
C383        C  0.02212077  0.21517682  0.80547075    -0.03100
C384        C  0.01815720  0.20191920  0.83839466    -0.07550
C385        C  0.48683698  0.18995351  0.84693680     0.05980
C386        C  0.45969686  0.18986946  0.82094012    -0.02580
Br387      Br  0.41664920  0.17248665  0.82964069    -0.02270
H388        H  0.44107938  0.20423687  0.76975291     0.09890
H389        H  0.04026360  0.20001177  0.85694212     0.07910
Br390      Br  0.07028928  0.22222091  0.79406219    -0.02700
C391        C  0.01883615  0.20540944  0.70711249    -0.09340
C392        C  0.48917431  0.22058919  0.71439394     0.06860
C393        C  0.45946106  0.21696071  0.69078941    -0.03100
C394        C  0.46323199  0.20388890  0.65786641    -0.07550
C395        C  0.49441075  0.19168351  0.64922259     0.05980
C396        C  0.02187452  0.19156795  0.67482162    -0.02580
Br397      Br  0.06494825  0.17415653  0.66584850    -0.02270
H398        H  0.04088320  0.20547813  0.72572323     0.09890
H399        H  0.44099677  0.20217864  0.63949987     0.07910
Br400      Br  0.41135895  0.22438243  0.70210543    -0.02700
C401        C  0.42476273  0.29204511  0.72322156    -0.09340
C402        C  0.40175598  0.29178687  0.75269584     0.06860
C403        C  0.40657451  0.27395338  0.78066239    -0.03100
C404        C  0.43460952  0.25701154  0.77926348    -0.07550
C405        C  0.45845280  0.25662206  0.74952343     0.05980
C406        C  0.45251345  0.27491134  0.72106566    -0.02580
Br407      Br  0.47932051  0.27774861  0.67690328    -0.02270
H408        H  0.42120477  0.30598180  0.70167415     0.09890
H409        H  0.43816145  0.24525386  0.80309227     0.07910
Br410      Br  0.37704250  0.27328623  0.82291423    -0.02700
C411        C  0.41812113  0.41220775  0.79854245    -0.09340
C412        C  0.41562530  0.42895151  0.76862939     0.06860
C413        C  0.39197653  0.42335741  0.73983634    -0.03100
C414        C  0.37389103  0.40047466  0.73996575    -0.07550
C415        C  0.37882167  0.38291578  0.76836775     0.05980
C416        C  0.40002036  0.38934680  0.79854840    -0.02580
Br417      Br  0.40549270  0.36727743  0.84006850    -0.02270
H418        H  0.43561040  0.41623772  0.82119245     0.09890
H419        H  0.35713606  0.39586765  0.71693521     0.07910
Br420      Br  0.38312225  0.44592054  0.69944829    -0.02700
C421        C  0.42021414  0.68104237  0.71306452    -0.09340
C422        C  0.39559373  0.68180953  0.74105669     0.06860
C423        C  0.39756531  0.70124693  0.76692705    -0.03100
C424        C  0.42574336  0.71797613  0.76631189    -0.07550
C425        C  0.45390527  0.71502560  0.74167592     0.05980
C426        C  0.44891113  0.69720157  0.71279999    -0.02580
Br427      Br  0.48168329  0.69026378  0.67444675    -0.02270
H428        H  0.41830280  0.66649860  0.69242647     0.09890
H429        H  0.42597195  0.73254035  0.78677616     0.07910
Br430      Br  0.36506317  0.70420059  0.80648817    -0.02700
C431        C  0.41005175  0.58733044  0.78316495    -0.09340
C432        C  0.38192066  0.58953330  0.75844699     0.06860
C433        C  0.37295477  0.56857984  0.73666221    -0.03100
C434        C  0.39286761  0.54637949  0.73910067    -0.07550
C435        C  0.42164791  0.54456203  0.76308304     0.05980
C436        C  0.43003612  0.56533004  0.78541893    -0.02580
Br437      Br  0.47087378  0.56618256  0.81636905    -0.02270
H438        H  0.41740650  0.60327009  0.79993180     0.09890
H439        H  0.38632893  0.53065413  0.72156938     0.07910
Br440      Br  0.33592344  0.56975609  0.70095122    -0.02700
C441        C  0.21880029  0.65542262  0.73057873    -0.09340
C442        C  0.20245569  0.64558334  0.76175918     0.06860
C443        C  0.22293975  0.63679805  0.79132154    -0.03100
C444        C  0.25933813  0.63675449  0.78864158    -0.07550
C445        C  0.27574454  0.64527773  0.75663226     0.05980
C446        C  0.25522063  0.65520238  0.72768721    -0.02580
Br447      Br  0.27515035  0.66592642  0.68208419    -0.02270
H448        H  0.20311577  0.66173917  0.70744524     0.09890
H449        H  0.27489100  0.62936332  0.81119040     0.07910
Br450      Br  0.20216811  0.62385932  0.83519090    -0.02700
C451        C  0.08317749  0.69985982  0.75138052    -0.09340
C452        C  0.07592425  0.67414180  0.75673902     0.06860
C453        C  0.04105076  0.66758504  0.76484901    -0.03100
C454        C  0.01428292  0.68497073  0.75912904    -0.07550
C455        C  0.02063197  0.71073645  0.75144131     0.05980
C456        C  0.05655601  0.71815500  0.75177775    -0.02580
Br457      Br  0.07253869  0.75248982  0.75079327    -0.02270
H458        H  0.10966357  0.70611749  0.74694063     0.09890
H459        H  0.98821119  0.67802894  0.76365857     0.07910
Br460      Br  0.02760875  0.63688896  0.78960748    -0.02700
C461        C  0.07618658  0.55201513  0.78472458    -0.09340
C462        C  0.06587806  0.53961138  0.75247469     0.06860
C463        C  0.07833794  0.54889122  0.71840568    -0.03100
C464        C  0.09769213  0.57123557  0.71721493    -0.07550
C465        C  0.10570128  0.58422552  0.74935068     0.05980
C466        C  0.09583483  0.57408106  0.78335020    -0.02580
Br467      Br  0.10600136  0.59096870  0.82853663    -0.02270
H468        H  0.06755023  0.54530853  0.81121013     0.09890
H469        H  0.10545933  0.57900104  0.69101195     0.07910
Br470      Br  0.06979382  0.53281799  0.67219862    -0.02700
C471        C  0.22310665  0.33727265  0.71926893    -0.09340
C472        C  0.20443339  0.32353252  0.74561663     0.06860
C473        C  0.22315739  0.30891054  0.77164382    -0.03100
C474        C  0.25982625  0.30952231  0.77219636    -0.07550
C475        C  0.27825753  0.32471531  0.74738726     0.05980
C476        C  0.25959417  0.33796684  0.71994698    -0.02580
Br477      Br  0.28263078  0.35756777  0.68295588    -0.02270
H478        H  0.20912499  0.34825767  0.69875095     0.09890
H479        H  0.27391899  0.29923866  0.79337748     0.07910
Br480      Br  0.20029990  0.28996948  0.80941848    -0.02700
C481        C  0.05696475  0.29003715  0.77875057    -0.09340
C482        C  0.08002685  0.29118169  0.74930676     0.06860
C483        C  0.07474871  0.27505912  0.71953908    -0.03100
C484        C  0.04655838  0.25828824  0.71949658    -0.07550
C485        C  0.02276987  0.25658217  0.74918730     0.05980
C486        C  0.02875826  0.27340043  0.77911875    -0.02580
Br487      Br  0.00144666  0.27479666  0.82308746    -0.02270
H488        H  0.06073316  0.30262262  0.80170551     0.09890
H489        H  0.04279278  0.24772302  0.69473518     0.07910
Br490      Br  0.10337695  0.27674590  0.67665579    -0.02700
C491        C  0.09097049  0.39044987  0.78927176    -0.09340
C492        C  0.10301304  0.38236787  0.75524292     0.06860
C493        C  0.09645874  0.39712971  0.72392461    -0.03100
C494        C  0.07632772  0.41905573  0.72665500    -0.07550
C495        C  0.06230530  0.42664044  0.76043368     0.05980
C496        C  0.07093189  0.41239794  0.79231771    -0.02580
Br497      Br  0.05465918  0.42009740  0.84069202    -0.02270
H498        H  0.09588218  0.37895023  0.81340675     0.09890
H499        H  0.07066676  0.42970589  0.70191580     0.07910
Br500      Br  0.11233594  0.38696969  0.67653013    -0.02700
C501        C  0.66605593  0.32741654  0.24768266     0.02950
C502        C  0.65313568  0.35219907  0.25037837    -0.13200
C503        C  0.61720170  0.35670500  0.25220330     0.00450
C504        C  0.59394436  0.33653874  0.25145811    -0.11730
C505        C  0.60609621  0.31173426  0.24861640     0.02940
C506        C  0.64231032  0.30714479  0.24653894    -0.11150
H507        H  0.67104492  0.36798418  0.25135246     0.08540
H508        H  0.56608573  0.34021617  0.25296756     0.06070
H509        H  0.65189393  0.28798833  0.24424459     0.05910
C510        C  0.66479266  0.64029453  0.25974223     0.02950
C511        C  0.65409918  0.61532205  0.25481266    -0.13200
C512        C  0.61915341  0.61008871  0.24732826     0.00450
C513        C  0.59529101  0.62985289  0.24335456    -0.11730
C514        C  0.60413253  0.65452584  0.25372660     0.02940
C515        C  0.63977668  0.65976370  0.26071120    -0.11150
H516        H  0.67293203  0.60004173  0.25659687     0.08540
H517        H  0.56915995  0.62545418  0.23402994     0.06070
H518        H  0.64842491  0.67860100  0.26723891     0.05910
C519        C  0.81392878  0.64213022  0.25330793     0.02950
C520        C  0.82891005  0.61798929  0.25701074    -0.13200
C521        C  0.86512563  0.61463766  0.25380454     0.00450
C522        C  0.88625865  0.63580983  0.24799228    -0.11730
C523        C  0.87178651  0.66008229  0.24539223     0.02940
C524        C  0.83547679  0.66311888  0.24749903    -0.11150
H525        H  0.81236000  0.60188599  0.26253539     0.08540
H526        H  0.91435016  0.63343688  0.24612402     0.06070
H527        H  0.82402543  0.68176626  0.24505762     0.05910
O528        O  0.95045902  0.45814724  0.23506178    -0.73120
O529        O  0.52573636  0.50979647  0.22678884    -0.74100
O530        O  0.52412546  0.45632388  0.23061442    -0.62720
O531        O  0.95219827  0.51187978  0.23191488    -0.71130
O532        O  0.95686375  0.51320123  0.29245093    -0.70690
O533        O  0.52787303  0.45784600  0.29098503    -0.61940
O534        O  0.53032933  0.51115935  0.28710743    -0.74450
O535        O  0.95413984  0.45931810  0.29557710    -0.73230
Cu536      Cu  0.98792395  0.48396052  0.22901847     1.04560
Cu537      Cu  0.99236311  0.48541720  0.29363166     1.04330
C538        C  0.94067980  0.45017278  0.26637750     0.93070
C539        C  0.53985951  0.51893476  0.25547961     0.92210
C540        C  0.53715989  0.44807002  0.26077287     0.84360
C541        C  0.94424126  0.52193312  0.26249345     0.90630
C542        C  0.81629442  0.32853521  0.25268372     0.02950
C543        C  0.82900288  0.35295145  0.25932520    -0.13200
C544        C  0.86487263  0.35716073  0.26399746     0.00450
C545        C  0.88814800  0.33684659  0.26176007    -0.11730
C546        C  0.87592726  0.31237309  0.25579126     0.02940
C547        C  0.83987461  0.30815059  0.25153548    -0.11150
H548        H  0.81096272  0.36870696  0.26074175     0.08540
H549        H  0.91602222  0.34012921  0.26429550     0.06070
H550        H  0.83034842  0.28926232  0.24646615     0.05910
C551        C  0.99067778  0.23821162  0.24870177    -0.02670
C552        C  0.98917801  0.72974484  0.24662132    -0.02670
N553        N  0.99662924  0.14759057  0.07334561    -0.27470
N554        N  0.99383933  0.16918483  0.05521817    -0.35330
C555        C  0.99340648  0.18821512  0.07941100     0.00870
C556        C  0.99675229  0.17810521  0.11426059     0.06900
C557        C  0.99855874  0.15234047  0.10945262    -0.06200
H558        H  0.99047888  0.20793337  0.07220473     0.07560
H559        H  0.99992544  0.13805312  0.13068267     0.08760
Cu560      Cu  0.99024538  0.17181851  0.49846389     0.44170
Cu561      Cu  0.99528623  0.11241135  0.04881058     0.41990
Cu562      Cu  0.98695019  0.11201990  0.45069026     0.43880
N563        N  0.98668628  0.16860657  0.44182538    -0.34860
N564        N  0.98443273  0.14679988  0.42460950    -0.29110
C565        C  0.98263600  0.15109329  0.38829411    -0.05210
C566        C  0.98395688  0.17679538  0.38239390     0.07010
C567        C  0.98689193  0.18733956  0.41682094     0.00800
H568        H  0.98189725  0.13654589  0.36768077     0.08450
H569        H  0.98957363  0.20714360  0.42317693     0.07530
N570        N  0.99106392  0.07946701  0.48218137    -0.36300
N571        N  0.99346153  0.07954481  0.01827451    -0.28490
C572        C  0.99450366  0.05558619  0.03055944    -0.03720
C573        C  0.99340866  0.03953936  0.50067549     0.04890
C574        C  0.99089570  0.05548611  0.47050529     0.02980
H575        H  0.99493273  0.05039105  0.05920429     0.08080
H576        H  0.98890296  0.05006014  0.44207579     0.06920
N577        N  0.99226661  0.82325942  0.42149990    -0.27470
N578        N  0.00009215  0.80230615  0.43943655    -0.35330
C579        C  0.00286959  0.78334897  0.41548415     0.00870
C580        C  0.99626555  0.79262564  0.38046563     0.06900
C581        C  0.98912934  0.81805519  0.38562015    -0.06200
H582        H  0.00883875  0.76409491  0.42326659     0.07560
H583        H  0.98099387  0.83175501  0.36529269     0.08760
Cu584      Cu  0.00317153  0.79981853  0.49581541     0.44170
Cu585      Cu  0.98717185  0.85793280  0.44697393     0.41990
Cu586      Cu  0.98801583  0.85730793  0.04641532     0.43880
N587        N  0.99924870  0.80114248  0.05213934    -0.34860
N588        N  0.99308508  0.82194411  0.07078875    -0.29110
C589        C  0.99111566  0.81605040  0.10662201    -0.05210
C590        C  0.99678444  0.79038678  0.11063064     0.07010
C591        C  0.00141479  0.78153294  0.07547263     0.00800
H592        H  0.98612282  0.82945793  0.12817634     0.08190
H593        H  0.00530201  0.76216801  0.06726934     0.07530
N594        N  0.98646264  0.89010985  0.01492449    -0.36300
N595        N  0.98649228  0.89028161  0.47872212    -0.28490
C596        C  0.98682742  0.91430333  0.46673814    -0.03720
C597        C  0.98639734  0.93014596  0.49679688     0.04890
C598        C  0.98657703  0.91405396  0.02688174     0.02980
H599        H  0.98837284  0.91970872  0.43821982     0.08080
H600        H  0.98695609  0.91936822  0.05542102     0.06920
C601        C  0.97170309  0.99958739  0.47352910    -0.09340
C602        C  0.99223179  0.01150348  0.50035085     0.06860
C603        C  0.51102324  0.99631252  0.02568174    -0.03100
C604        C  0.50843498  0.97000153  0.02408557    -0.07550
C605        C  0.98788799  0.95813424  0.49725491     0.05980
C606        C  0.96930046  0.97330250  0.47180083    -0.02580
Br607      Br  0.93801187  0.95971206  0.43569340    -0.02270
H608        H  0.95670900  0.01080331  0.45411590     0.09890
H609        H  0.52332730  0.95870540  0.04349800     0.07910
Br610      Br  0.54293794  0.00981022  0.06125794    -0.02700
C611        C  0.49869883  0.77235837  0.28019017    -0.09340
C612        C  0.99030851  0.74634438  0.28222779     0.06860
C613        C  0.98595889  0.73618343  0.31837615    -0.03100
C614        C  0.98710434  0.75184747  0.34896263    -0.07550
C615        C  0.99460462  0.77757485  0.34616745     0.05980
C616        C  0.50131883  0.78765318  0.31115811    -0.02580
Br617      Br  0.51801140  0.82130806  0.30305466    -0.02270
H618        H  0.50520807  0.78118153  0.25447277     0.09890
H619        H  0.98203027  0.74354716  0.37552766     0.07910
Br620      Br  0.97724764  0.70147967  0.33085136    -0.02700
C621        C  0.51845778  0.74246637  0.18480615    -0.09340
C622        C  0.99160371  0.74625271  0.21080321     0.06860
C623        C  0.96595833  0.76505468  0.20170027    -0.03100
C624        C  0.96872866  0.77936367  0.16952311    -0.07550
C625        C  0.99588839  0.77541737  0.14484391     0.05980
C626        C  0.52105571  0.75687324  0.15287106    -0.02580
Br627      Br  0.56097334  0.75105509  0.12240631    -0.02270
H628        H  0.53753614  0.72766346  0.18798581     0.09890
H629        H  0.94901420  0.79351410  0.16339002     0.07910
Br630      Br  0.92638127  0.77353181  0.23143927    -0.02700
C631        C  0.96297670  0.20390087  0.28858129    -0.09340
C632        C  0.99243312  0.21934555  0.28192632     0.06860
C633        C  0.52212076  0.21517681  0.30547076    -0.03100
C634        C  0.51815718  0.20191920  0.33839466    -0.07550
C635        C  0.98683696  0.18995352  0.34693680     0.05980
C636        C  0.95969684  0.18986946  0.32094012    -0.02580
Br637      Br  0.91664918  0.17248666  0.32964068    -0.02270
H638        H  0.94107937  0.20423687  0.26975291     0.09890
H639        H  0.54026359  0.20001177  0.35694213     0.07910
Br640      Br  0.57028927  0.22222090  0.29406220    -0.02700
C641        C  0.51883615  0.20540944  0.20711249    -0.09340
C642        C  0.98917431  0.22058919  0.21439394     0.06860
C643        C  0.95946107  0.21696071  0.19078941    -0.03100
C644        C  0.96323199  0.20388891  0.15786641    -0.07550
C645        C  0.99441076  0.19168351  0.14922259     0.05980
C646        C  0.52187452  0.19156795  0.17482162    -0.02580
Br647      Br  0.56494826  0.17415653  0.16584851    -0.02270
H648        H  0.54088320  0.20547813  0.22572323     0.09890
H649        H  0.94099678  0.20217864  0.13949987     0.07910
Br650      Br  0.91135895  0.22438243  0.20210542    -0.02700
C651        C  0.92476274  0.29204511  0.22322154    -0.09340
C652        C  0.90175599  0.29178688  0.25269582     0.06860
C653        C  0.90657451  0.27395339  0.28066237    -0.03100
C654        C  0.93460951  0.25701154  0.27926347    -0.07550
C655        C  0.95845280  0.25662206  0.24952343     0.05980
C656        C  0.95251346  0.27491134  0.22106565    -0.02580
Br657      Br  0.97932052  0.27774860  0.17690327    -0.02270
H658        H  0.92120478  0.30598180  0.20167413     0.09890
H659        H  0.93816144  0.24525386  0.30309226     0.07910
Br660      Br  0.87704249  0.27328624  0.32291421    -0.02700
C661        C  0.91812108  0.41220776  0.29854243    -0.09340
C662        C  0.91562530  0.42895151  0.26862936     0.06860
C663        C  0.89197657  0.42335740  0.23983627    -0.03100
C664        C  0.87389107  0.40047465  0.23996567    -0.07550
C665        C  0.87882166  0.38291579  0.26836769     0.05980
C666        C  0.90002031  0.38934681  0.29854837    -0.02580
Br667      Br  0.90549259  0.36727745  0.34006848    -0.02270
H668        H  0.93561031  0.41623774  0.32119246     0.09890
H669        H  0.85713614  0.39586763  0.21693510     0.07910
Br670      Br  0.88312236  0.44592052  0.19944818    -0.02700
C671        C  0.92021419  0.68104236  0.21306457    -0.09340
C672        C  0.89559377  0.68180956  0.24105672     0.06860
C673        C  0.89756533  0.70124700  0.26692703    -0.03100
C674        C  0.92574340  0.71797618  0.26631186    -0.07550
C675        C  0.95390533  0.71502560  0.24167592     0.05980
C676        C  0.94891120  0.69720155  0.21280003    -0.02580
Br677      Br  0.98168338  0.69026369  0.17444683    -0.02270
H678        H  0.91830286  0.66649858  0.19242655     0.09890
H679        H  0.92597199  0.73254042  0.28677610     0.07910
Br680      Br  0.86506316  0.70420072  0.30648811    -0.02700
C681        C  0.91005182  0.58733047  0.28316502    -0.09340
C682        C  0.88192072  0.58953333  0.25844708     0.06860
C683        C  0.87295482  0.56857987  0.23666230    -0.03100
C684        C  0.89286765  0.54637952  0.23910076    -0.07550
C685        C  0.92164795  0.54456205  0.26308312     0.05980
C686        C  0.93003618  0.56533007  0.28541899    -0.02580
Br687      Br  0.97087387  0.56618258  0.31636908    -0.02270
H688        H  0.91740659  0.60327012  0.29993186     0.09890
H689        H  0.88632896  0.53065416  0.22156948     0.07910
Br690      Br  0.83592348  0.56975613  0.20095133    -0.02700
C691        C  0.71880031  0.65542262  0.23057892    -0.09340
C692        C  0.70245574  0.64558333  0.26175939     0.06860
C693        C  0.72293982  0.63679805  0.29132173    -0.03100
C694        C  0.75933820  0.63675450  0.28864174    -0.07550
C695        C  0.77574459  0.64527774  0.25663240     0.05980
C696        C  0.75522065  0.65520240  0.22768738    -0.02580
Br697      Br  0.77515034  0.66592644  0.18208434    -0.02270
H698        H  0.70311578  0.66173917  0.20744544     0.09890
H699        H  0.77489110  0.62936334  0.31119054     0.07910
Br700      Br  0.70216822  0.62385931  0.33519110    -0.02700
C701        C  0.58317755  0.69985979  0.25138052    -0.09340
C702        C  0.57592431  0.67414179  0.25673913     0.06860
C703        C  0.54105082  0.66758505  0.26484914    -0.03100
C704        C  0.51428298  0.68497073  0.25912912    -0.07550
C705        C  0.52063204  0.71073644  0.25144132     0.05980
C706        C  0.55655609  0.71815498  0.25177769    -0.02580
Br707      Br  0.57253879  0.75248979  0.25079306    -0.02270
H708        H  0.60966364  0.70611745  0.24694059     0.09890
H709        H  0.48821125  0.67802896  0.26365866     0.07910
Br710      Br  0.52760880  0.63688901  0.28960770    -0.02700
C711        C  0.57618657  0.55201512  0.28472483    -0.09340
C712        C  0.56587812  0.53961136  0.25247493     0.06860
C713        C  0.57833809  0.54889117  0.21840594    -0.03100
C714        C  0.59769228  0.57123552  0.21721522    -0.07550
C715        C  0.60570135  0.58422549  0.24935097     0.05980
C716        C  0.59583483  0.57408105  0.28335048    -0.02580
Br717      Br  0.60600126  0.59096871  0.32853691    -0.02270
H718        H  0.56755015  0.54530854  0.31121037     0.09890
H719        H  0.60545955  0.57900097  0.19101224     0.07910
Br720      Br  0.56979410  0.53281790  0.17219888    -0.02700
C721        C  0.72310664  0.33727265  0.21926892    -0.09340
C722        C  0.70443339  0.32353252  0.24561663     0.06860
C723        C  0.72315740  0.30891053  0.27164381    -0.03100
C724        C  0.75982626  0.30952231  0.27219633    -0.07550
C725        C  0.77825753  0.32471531  0.24738723     0.05980
C726        C  0.75959416  0.33796684  0.21994696    -0.02580
Br727      Br  0.78263075  0.35756777  0.18295584    -0.02270
H728        H  0.70912497  0.34825767  0.19875095     0.09890
H729        H  0.77391901  0.29923866  0.29337744     0.07910
Br730      Br  0.70029992  0.28996947  0.30941847    -0.02700
C731        C  0.55696475  0.29003715  0.27875058    -0.09340
C732        C  0.58002685  0.29118169  0.24930677     0.06860
C733        C  0.57474871  0.27505912  0.21953910    -0.03100
C734        C  0.54655839  0.25828824  0.21949659    -0.07550
C735        C  0.52276987  0.25658217  0.24918730     0.05980
C736        C  0.52875826  0.27340042  0.27911876    -0.02580
Br737      Br  0.50144665  0.27479665  0.32308746    -0.02270
H738        H  0.56073315  0.30262262  0.30170552     0.09890
H739        H  0.54279279  0.24772302  0.19473519     0.07910
Br740      Br  0.60337696  0.27674590  0.17665581    -0.02700
C741        C  0.59097053  0.39044988  0.28927183    -0.09340
C742        C  0.60301305  0.38236786  0.25524297     0.06860
C743        C  0.59645871  0.39712970  0.22392467    -0.03100
C744        C  0.57632768  0.41905572  0.22665507    -0.07550
C745        C  0.56230530  0.42664043  0.26043376     0.05980
C746        C  0.57093193  0.41239795  0.29231779    -0.02580
Br747      Br  0.55465930  0.42009743  0.34069212    -0.02270
H748        H  0.59588225  0.37895024  0.31340682     0.09890
H749        H  0.57066669  0.42970587  0.20191586     0.07910
Br750      Br  0.61233585  0.38696966  0.17653017    -0.02700
C751        C  0.66605593  0.32741654  0.74768264     0.02950
C752        C  0.65313567  0.35219908  0.75037833    -0.13200
C753        C  0.61720170  0.35670500  0.75220325     0.00450
C754        C  0.59394436  0.33653874  0.75145807    -0.11730
C755        C  0.60609620  0.31173426  0.74861637     0.02940
C756        C  0.64231032  0.30714479  0.74653892    -0.11150
H757        H  0.67104492  0.36798419  0.75135242     0.08540
H758        H  0.56608573  0.34021617  0.75296751     0.06070
H759        H  0.65189393  0.28798834  0.74424459     0.05910
C760        C  0.66479260  0.64029454  0.75974201     0.02950
C761        C  0.65409913  0.61532207  0.75481239    -0.13200
C762        C  0.61915335  0.61008873  0.74732798     0.00450
C763        C  0.59529095  0.62985292  0.74335432    -0.11730
C764        C  0.60413248  0.65452586  0.75372642     0.02940
C765        C  0.63977663  0.65976371  0.76071102    -0.11150
H766        H  0.67293197  0.60004174  0.75659657     0.08540
H767        H  0.56915990  0.62545422  0.73402969     0.06070
H768        H  0.64842486  0.67860100  0.76723878     0.05910
C769        C  0.81392873  0.64213020  0.75330781     0.02950
C770        C  0.82891000  0.61798926  0.75701062    -0.13200
C771        C  0.86512558  0.61463763  0.75380443     0.00450
C772        C  0.88625861  0.63580980  0.74799219    -0.11730
C773        C  0.87178647  0.66008226  0.74539216     0.02940
C774        C  0.83547675  0.66311886  0.74749894    -0.11150
H775        H  0.81235993  0.60188596  0.76253526     0.08540
H776        H  0.91435012  0.63343684  0.74612394     0.06070
H777        H  0.82402540  0.68176624  0.74505754     0.05910
O778        O  0.95045900  0.45814722  0.73506175    -0.73120
O779        O  0.52573631  0.50979645  0.72678869    -0.74100
O780        O  0.52412544  0.45632387  0.73061434    -0.62720
O781        O  0.95219822  0.51187976  0.73191480    -0.71130
O782        O  0.95686375  0.51320123  0.79245084    -0.70690
O783        O  0.52787305  0.45784603  0.79098494    -0.61940
O784        O  0.53032932  0.51115937  0.78710728    -0.74450
O785        O  0.95413987  0.45931810  0.79557708    -0.73230
Cu786      Cu  0.98792391  0.48396050  0.72901838     1.04560
Cu787      Cu  0.99236313  0.48541721  0.79363157     1.04330
C788        C  0.94067980  0.45017277  0.76637750     0.93070
C789        C  0.53985947  0.51893477  0.75547944     0.92210
C790        C  0.53715989  0.44807002  0.76077278     0.84360
C791        C  0.94424122  0.52193310  0.76249337     0.90630
C792        C  0.81629442  0.32853521  0.75268377     0.02950
C793        C  0.82900288  0.35295144  0.75932527    -0.13200
C794        C  0.86487263  0.35716073  0.76399753     0.00450
C795        C  0.88814800  0.33684658  0.76176012    -0.11730
C796        C  0.87592726  0.31237309  0.75579130     0.02940
C797        C  0.83987460  0.30815059  0.75153551    -0.11150
H798        H  0.81096272  0.36870696  0.76074182     0.08540
H799        H  0.91602222  0.34012920  0.76429555     0.06070
H800        H  0.83034841  0.28926232  0.74646617     0.05910
C801        C  0.99067778  0.23821162  0.74870177    -0.02670
C802        C  0.98917794  0.72974484  0.74662132    -0.02670
N803        N  0.99662923  0.14759056  0.57334561    -0.27470
N804        N  0.99383932  0.16918483  0.55521817    -0.35330
C805        C  0.99340646  0.18821512  0.57941100     0.00870
C806        C  0.99675228  0.17810521  0.61426059     0.06900
C807        C  0.99855873  0.15234046  0.60945262    -0.06200
H808        H  0.99047887  0.20793337  0.57220473     0.07560
H809        H  0.99992544  0.13805312  0.63068267     0.08760
Cu810      Cu  0.99024540  0.17181851  0.99846389     0.44170
Cu811      Cu  0.99528621  0.11241134  0.54881058     0.41990
Cu812      Cu  0.98695023  0.11201989  0.95069026     0.43880
N813        N  0.98668630  0.16860657  0.94182537    -0.34860
N814        N  0.98443276  0.14679988  0.92460950    -0.29110
C815        C  0.98263603  0.15109328  0.88829411    -0.05210
C816        C  0.98395691  0.17679538  0.88239390     0.07010
C817        C  0.98689194  0.18733956  0.91682094     0.00800
H818        H  0.98189729  0.13654589  0.86768076     0.08450
H819        H  0.98957364  0.20714359  0.92317693     0.07530
N820        N  0.99106396  0.07946701  0.98218137    -0.36300
N821        N  0.99346151  0.07954480  0.51827451    -0.28490
C822        C  0.99450365  0.05558618  0.53055943    -0.03720
C823        C  0.99340868  0.03953936  0.00067551     0.04890
C824        C  0.99089573  0.05548611  0.97050530     0.02980
H825        H  0.99493274  0.05039104  0.55920428     0.08080
H826        H  0.98890300  0.05006014  0.94207580     0.06920
N827        N  0.99226652  0.82325943  0.92149989    -0.27470
N828        N  0.00009210  0.80230617  0.93943652    -0.35330
C829        C  0.00286953  0.78334899  0.91548412     0.00870
C830        C  0.99626544  0.79262566  0.88046561     0.06900
C831        C  0.98912922  0.81805521  0.88562015    -0.06200
H832        H  0.00883870  0.76409493  0.92326655     0.07560
H833        H  0.98099371  0.83175503  0.86529271     0.08760
Cu834      Cu  0.00317149  0.79981853  0.99581538     0.44170
Cu835      Cu  0.98717178  0.85793281  0.94697395     0.41990
Cu836      Cu  0.98801582  0.85730794  0.54641530     0.43880
N837        N  0.99924873  0.80114250  0.55213937    -0.34860
N838        N  0.99308507  0.82194413  0.57078876    -0.29110
C839        C  0.99111563  0.81605044  0.60662202    -0.05210
C840        C  0.99678444  0.79038682  0.61063068     0.07010
C841        C  0.00141483  0.78153297  0.57547268     0.00800
H842        H  0.98612277  0.82945797  0.62817634     0.08190
H843        H  0.00530208  0.76216804  0.56726942     0.07530
N844        N  0.98646266  0.89010986  0.51492446    -0.36300
N845        N  0.98649224  0.89028161  0.97872214    -0.28490
C846        C  0.98682737  0.91430333  0.96673817    -0.03720
C847        C  0.98639731  0.93014596  0.99679691     0.04890
C848        C  0.98657704  0.91405396  0.52688171     0.02980
H849        H  0.98837278  0.91970872  0.93821986     0.08080
H850        H  0.98695608  0.91936822  0.55542098     0.06920
C851        C  0.97170310  0.99958739  0.97352912    -0.09340
C852        C  0.99223179  0.01150348  0.00035087     0.06860
C853        C  0.51102326  0.99631252  0.52568170    -0.03100
C854        C  0.50843501  0.97000153  0.52408552    -0.07550
C855        C  0.98788797  0.95813424  0.99725494     0.05980
C856        C  0.96930045  0.97330250  0.97180085    -0.02580
Br857      Br  0.93801187  0.95971207  0.93569341    -0.02270
H858        H  0.95670902  0.01080332  0.95411590     0.09890
H859        H  0.52332735  0.95870540  0.54349795     0.07910
Br860      Br  0.54293798  0.00981023  0.56125788    -0.02700
C861        C  0.49869865  0.77235840  0.78019014    -0.09340
C862        C  0.99030842  0.74634439  0.78222778     0.06860
C863        C  0.98595885  0.73618345  0.81837614    -0.03100
C864        C  0.98710429  0.75184748  0.84896261    -0.07550
C865        C  0.99460450  0.77757487  0.84616743     0.05980
C866        C  0.50131862  0.78765322  0.81115807    -0.02580
Br867      Br  0.51801106  0.82130813  0.80305458    -0.02270
H868        H  0.50520785  0.78118156  0.75447274     0.09890
H869        H  0.98203027  0.74354717  0.87552765     0.07910
Br870      Br  0.97724771  0.70147967  0.83085135    -0.02700
C871        C  0.51845778  0.74246643  0.68480621    -0.09340
C872        C  0.99160364  0.74625272  0.71080321     0.06860
C873        C  0.96595822  0.76505465  0.70170023    -0.03100
C874        C  0.96872857  0.77936365  0.66952308    -0.07550
C875        C  0.99588837  0.77541742  0.64484395     0.05980
C876        C  0.52105575  0.75687334  0.65287115    -0.02580
Br877      Br  0.56097351  0.75105531  0.62240653    -0.02270
H878        H  0.53753618  0.72766355  0.68798589     0.09890
H879        H  0.94901408  0.79351405  0.66338995     0.07910
Br880      Br  0.92638109  0.77353171  0.73143915    -0.02700
C881        C  0.96297671  0.20390087  0.78858129    -0.09340
C882        C  0.99243313  0.21934555  0.78192632     0.06860
C883        C  0.52212077  0.21517681  0.80547075    -0.03100
C884        C  0.51815720  0.20191920  0.83839466    -0.07550
C885        C  0.98683698  0.18995352  0.84693680     0.05980
C886        C  0.95969686  0.18986946  0.82094012    -0.02580
Br887      Br  0.91664920  0.17248665  0.82964069    -0.02270
H888        H  0.94107938  0.20423687  0.76975291     0.09890
H889        H  0.54026360  0.20001177  0.85694212     0.07910
Br890      Br  0.57028928  0.22222091  0.79406219    -0.02700
C891        C  0.51883615  0.20540944  0.70711249    -0.09340
C892        C  0.98917431  0.22058919  0.71439394     0.06860
C893        C  0.95946106  0.21696071  0.69078941    -0.03100
C894        C  0.96323199  0.20388891  0.65786641    -0.07550
C895        C  0.99441075  0.19168351  0.64922259     0.05980
C896        C  0.52187452  0.19156795  0.67482162    -0.02580
Br897      Br  0.56494825  0.17415653  0.66584850    -0.02270
H898        H  0.54088320  0.20547813  0.72572323     0.09890
H899        H  0.94099677  0.20217864  0.63949988     0.07910
Br900      Br  0.91135895  0.22438243  0.70210543    -0.02700
C901        C  0.92476273  0.29204511  0.72322156    -0.09340
C902        C  0.90175598  0.29178687  0.75269585     0.06860
C903        C  0.90657451  0.27395338  0.78066239    -0.03100
C904        C  0.93460952  0.25701154  0.77926349    -0.07550
C905        C  0.95845280  0.25662206  0.74952343     0.05980
C906        C  0.95251345  0.27491134  0.72106567    -0.02580
Br907      Br  0.97932051  0.27774861  0.67690328    -0.02270
H908        H  0.92120477  0.30598180  0.70167415     0.09890
H909        H  0.93816145  0.24525386  0.80309227     0.07910
Br910      Br  0.87704250  0.27328623  0.82291423    -0.02700
C911        C  0.91812113  0.41220775  0.79854245    -0.09340
C912        C  0.91562530  0.42895151  0.76862940     0.06860
C913        C  0.89197652  0.42335741  0.73983635    -0.03100
C914        C  0.87389103  0.40047466  0.73996576    -0.07550
C915        C  0.87882167  0.38291578  0.76836776     0.05980
C916        C  0.90002037  0.38934680  0.79854841    -0.02580
Br917      Br  0.90549271  0.36727743  0.84006850    -0.02270
H918        H  0.93561041  0.41623771  0.82119245     0.09890
H919        H  0.85713605  0.39586765  0.71693522     0.07910
Br920      Br  0.88312224  0.44592054  0.69944830    -0.02700
C921        C  0.92021414  0.68104237  0.71306452    -0.09340
C922        C  0.89559373  0.68180953  0.74105669     0.06860
C923        C  0.89756531  0.70124693  0.76692705    -0.03100
C924        C  0.92574336  0.71797613  0.76631189    -0.07550
C925        C  0.95390526  0.71502560  0.74167592     0.05980
C926        C  0.94891113  0.69720157  0.71280000    -0.02580
Br927      Br  0.98168329  0.69026378  0.67444675    -0.02270
H928        H  0.91830280  0.66649860  0.69242647     0.09890
H929        H  0.92597195  0.73254035  0.78677617     0.07910
Br930      Br  0.86506317  0.70420058  0.80648818    -0.02700
C931        C  0.91005175  0.58733044  0.78316495    -0.09340
C932        C  0.88192066  0.58953330  0.75844699     0.06860
C933        C  0.87295477  0.56857984  0.73666220    -0.03100
C934        C  0.89286761  0.54637949  0.73910067    -0.07550
C935        C  0.92164791  0.54456203  0.76308304     0.05980
C936        C  0.93003611  0.56533004  0.78541892    -0.02580
Br937      Br  0.97087378  0.56618256  0.81636904    -0.02270
H938        H  0.91740650  0.60327009  0.79993180     0.09890
H939        H  0.88632893  0.53065413  0.72156938     0.07910
Br940      Br  0.83592344  0.56975609  0.70095122    -0.02700
C941        C  0.71880029  0.65542262  0.73057874    -0.09340
C942        C  0.70245569  0.64558333  0.76175919     0.06860
C943        C  0.72293975  0.63679805  0.79132155    -0.03100
C944        C  0.75933813  0.63675449  0.78864158    -0.07550
C945        C  0.77574454  0.64527773  0.75663226     0.05980
C946        C  0.75522063  0.65520238  0.72768722    -0.02580
Br947      Br  0.77515035  0.66592642  0.68208419    -0.02270
H948        H  0.70311577  0.66173917  0.70744524     0.09890
H949        H  0.77489101  0.62936332  0.81119040     0.07910
Br950      Br  0.70216811  0.62385932  0.83519091    -0.02700
C951        C  0.58317749  0.69985982  0.75138052    -0.09340
C952        C  0.57592425  0.67414180  0.75673902     0.06860
C953        C  0.54105076  0.66758504  0.76484901    -0.03100
C954        C  0.51428292  0.68497073  0.75912904    -0.07550
C955        C  0.52063197  0.71073645  0.75144131     0.05980
C956        C  0.55655601  0.71815500  0.75177775    -0.02580
Br957      Br  0.57253869  0.75248982  0.75079326    -0.02270
H958        H  0.60966358  0.70611748  0.74694063     0.09890
H959        H  0.48821119  0.67802894  0.76365857     0.07910
Br960      Br  0.52760874  0.63688896  0.78960748    -0.02700
C961        C  0.57618657  0.55201513  0.78472460    -0.09340
C962        C  0.56587806  0.53961138  0.75247471     0.06860
C963        C  0.57833797  0.54889120  0.71840571    -0.03100
C964        C  0.59769215  0.57123555  0.71721495    -0.07550
C965        C  0.60570128  0.58422551  0.74935070     0.05980
C966        C  0.59583482  0.57408107  0.78335022    -0.02580
Br967      Br  0.60600131  0.59096872  0.82853664    -0.02270
H968        H  0.56755020  0.54530855  0.81121015     0.09890
H969        H  0.60545937  0.57900102  0.69101197     0.07910
Br970      Br  0.56979389  0.53281796  0.67219865    -0.02700
C971        C  0.72310666  0.33727265  0.71926893    -0.09340
C972        C  0.70443339  0.32353252  0.74561663     0.06860
C973        C  0.72315739  0.30891054  0.77164382    -0.03100
C974        C  0.75982625  0.30952231  0.77219636    -0.07550
C975        C  0.77825753  0.32471531  0.74738727     0.05980
C976        C  0.75959417  0.33796684  0.71994699    -0.02580
Br977      Br  0.78263078  0.35756777  0.68295589    -0.02270
H978        H  0.70912500  0.34825767  0.69875095     0.09890
H979        H  0.77391899  0.29923866  0.79337748     0.07910
Br980      Br  0.70029990  0.28996948  0.80941848    -0.02700
C981        C  0.55696475  0.29003715  0.77875057    -0.09340
C982        C  0.58002685  0.29118169  0.74930676     0.06860
C983        C  0.57474871  0.27505912  0.71953908    -0.03100
C984        C  0.54655838  0.25828824  0.71949658    -0.07550
C985        C  0.52276987  0.25658217  0.74918729     0.05980
C986        C  0.52875826  0.27340043  0.77911875    -0.02580
Br987      Br  0.50144666  0.27479666  0.82308746    -0.02270
H988        H  0.56073316  0.30262262  0.80170551     0.09890
H989        H  0.54279278  0.24772302  0.69473518     0.07910
Br990      Br  0.60337695  0.27674590  0.67665579    -0.02700
C991        C  0.59097049  0.39044987  0.78927176    -0.09340
C992        C  0.60301304  0.38236787  0.75524292     0.06860
C993        C  0.59645874  0.39712971  0.72392462    -0.03100
C994        C  0.57632771  0.41905573  0.72665501    -0.07550
C995        C  0.56230530  0.42664044  0.76043369     0.05980
C996        C  0.57093189  0.41239794  0.79231772    -0.02580
Br997      Br  0.55465918  0.42009740  0.84069203    -0.02270
H998        H  0.59588218  0.37895022  0.81340675     0.09890
H999        H  0.57066676  0.42970589  0.70191580     0.07910
Br1000     Br  0.61233594  0.38696969  0.67653013    -0.02700
loop_ 
_geom_bond_atom_site_label_1 
_geom_bond_atom_site_label_2 
_geom_bond_distance 
_geom_bond_site_symmetry_2 
_ccdc_geom_bond_type 
C1            C2   1.408       .  A
C1            C6   1.411       .  A
C1          C222   1.484       .  S
C2            C3   1.396       .  A
C2            H7   1.084       .  S
C3            C4   1.394       .  A
C3          C242   1.470       .  S
C4            C5   1.399       .  A
C4            H8   1.085       .  S
C5            C6   1.408       .  A
C5          C232   1.480       .  S
C6            H9   1.083       .  S
C10          C11   1.400       .  A
C10          C15   1.407       .  A
C10         C192   1.470       .  S
C11          C12   1.392       .  A
C11          H16   1.084       .  S
C12          C13   1.394       .  A
C12         C215   1.469       .  S
C13          C14   1.407       .  A
C13          H17   1.080       .  S
C14          C15   1.414       .  A
C14         C202   1.502       .  S
C15          H18   1.081       .  S
C19          C20   1.407       .  A
C19          C24   1.404       .  A
C19         C195   1.475       .  S
C20          C21   1.402       .  A
C20          H25   1.084       .  S
C21          C22   1.402       .  A
C21         C182   1.485       .  S
C22          C23   1.403       .  A
C22          H26   1.084       .  S
C23          C24   1.400       .  A
C23         C172   1.480       .  S
C24          H27   1.084       .  S
O28         Cu36   1.998       .  S
O28          C38   1.276       .  A
O29        Cu536   1.998   1_455  S
O29          C39   1.274       .  A
O30        Cu536   2.014   1_455  S
O30          C40   1.280       .  A
O31         Cu36   2.016       .  S
O31          C41   1.279       .  A
O32         Cu37   2.001       .  S
O32          C41   1.276       .  A
O33        Cu537   1.996   1_455  S
O33          C40   1.274       .  A
O34        Cu537   2.011   1_455  S
O34          C39   1.280       .  A
O35         Cu37   2.018       .  S
O35          C38   1.280       .  A
Cu36        O529   1.998       .  S
Cu36        O530   2.014       .  S
Cu36        Cu37   2.366       .  S
Cu37        O533   1.996       .  S
Cu37        O534   2.011       .  S
C38         C162   1.483       .  S
C39         C212   1.488       .  S
C40         C245   1.487       .  S
C41         C185   1.478       .  S
C42          C43   1.407       .  A
C42          C47   1.407       .  A
C42         C225   1.481       .  S
C43          C44   1.400       .  A
C43          H48   1.084       .  S
C44          C45   1.399       .  A
C44         C165   1.478       .  S
C45          C46   1.399       .  A
C45          H49   1.084       .  S
C46          C47   1.405       .  A
C46         C152   1.476       .  S
C47          H50   1.084       .  S
C51         C132   1.569       .  S
C51         C142   1.569       .  S
C51         C155   1.571       .  S
C51         C735   1.570       .  S
C52         C112   1.575       .  S
C52         C122   1.573       .  S
C52         C175   1.571       .  S
C52         C705   1.576       .  S
N53          N54   1.323       .  A
N53          C57   1.345       .  A
N53         Cu61   2.076       .  S
N54          C55   1.346       .  A
N54        Cu310   2.080   1_554  S
C55          C56   1.383       .  A
C55          H58   1.083       .  S
C56          C57   1.381       .  A
C56         C145   1.473       .  S
C57          H59   1.082       .  S
Cu60         N63   2.080       .  S
Cu60        N304   2.080       .  S
Cu61         N71   2.077       .  S
Cu62         N64   2.073       .  S
Cu62         N70   2.074       .  S
N63          N64   1.323       .  A
N63          C67   1.346       .  A
N64          C65   1.345       .  A
C65          C66   1.381       .  A
C65          H68   1.082       .  S
C66          C67   1.383       .  A
C66         C135   1.472       .  S
C67          H69   1.083       .  S
N70         N321   1.320       .  A
N70          C74   1.345       .  A
N71         N320   1.320   1_554  A
N71          C72   1.346       .  A
C72         C323   1.389       .  A
C72          H75   1.080       .  S
C73          C74   1.388       .  A
C73         C322   1.389       .  A
C73         C102   1.489       .  S
C74          H76   1.081       .  S
N77          N78   1.319       .  A
N77          C81   1.345       .  A
N77         Cu85   2.076       .  S
N78          C79   1.342       .  A
N78         Cu84   2.064       .  S
C79          C80   1.388       .  A
C79          H82   1.082       .  S
C80          C81   1.390       .  A
C80         C115   1.491       .  S
C81          H83   1.079       .  S
Cu84        N337   2.065       .  S
Cu85         N95   2.078       .  S
Cu86         N88   2.080       .  S
Cu86         N94   2.081       .  S
N87          N88   1.322       .  A
N87          C91   1.343       .  A
N87        Cu334   2.065   1_554  S
N88          C89   1.346       .  A
C89          C90   1.385       .  A
C89          H92   1.082       .  S
C90          C91   1.382       .  A
C90         C125   1.477       .  S
C91          H93   1.082       .  S
N94         N345   1.322   1_554  A
N94          C98   1.346       .  A
N95         N344   1.322       .  A
N95          C96   1.345       .  A
C96          C97   1.387       .  A
C96          H99   1.080       .  S
C97         C348   1.387       .  A
C97         C105   1.487       .  S
C98         C347   1.387   1_554  A
C98         H100   1.081       .  S
C101        C102   1.405   1_565  A
C101        C106   1.400       .  A
C101        H108   1.083   1_565  S
C102        C853   1.414   1_545  A
C103        C104   1.402       .  A
C103        C852   1.414   1_465  A
C103       Br110   1.920   1_565  S
C104        C855   1.405   1_454  A
C104        H109   1.083       .  S
C105        C106   1.412       .  A
C105        C854   1.405       .  A
C106       Br107   1.920       .  S
C111        C116   1.399   1_655  A
C111        C612   1.420       .  A
C111        H118   1.078   1_655  S
C112        C113   1.434       .  A
C112        C611   1.420       .  A
C113        C114   1.397       .  A
C113       Br120   1.925       .  S
C114        C115   1.399       .  A
C114        H119   1.082       .  S
C115        C616   1.408       .  A
C116        C615   1.408   1_455  A
C116       Br117   1.920       .  S
C121        C126   1.395       .  A
C121        C622   1.418   1_455  A
C121        H128   1.076       .  S
C122        C123   1.433       .  A
C122        C621   1.418       .  A
C123        C124   1.400       .  A
C123       Br130   1.923       .  S
C124        C125   1.396       .  A
C124        H129   1.084       .  S
C125        C626   1.403       .  A
C126        C625   1.403   1_455  A
C126       Br127   1.921       .  S
C131        C132   1.417       .  A
C131        C136   1.399       .  A
C131        H138   1.080       .  S
C132        C633   1.435       .  A
C133        C134   1.399       .  A
C133        C632   1.435   1_455  A
C133       Br140   1.929       .  S
C134        C635   1.394   1_455  A
C134        H139   1.084       .  S
C135        C136   1.402       .  A
C135        C634   1.394       .  A
C136       Br137   1.917       .  S
C141        C146   1.398       .  A
C141        C642   1.417   1_455  A
C141        H148   1.079       .  S
C142        C143   1.436       .  A
C142        C641   1.417       .  A
C143        C144   1.400       .  A
C143       Br150   1.928       .  S
C144        C145   1.394       .  A
C144        H149   1.084       .  S
C145        C646   1.401       .  A
C146        C645   1.401   1_455  A
C146       Br147   1.918       .  S
C151        C152   1.395       .  A
C151        C156   1.398       .  A
C151        H158   1.084       .  S
C152        C153   1.399       .  A
C153        C154   1.399       .  A
C153       Br160   1.919       .  S
C154        C155   1.423       .  A
C154        H159   1.075       .  S
C155        C156   1.434       .  A
C156       Br157   1.922       .  S
C161        C162   1.406       .  A
C161        C166   1.399       .  A
C161        H168   1.083       .  S
C162        C163   1.415       .  A
C163        C164   1.399       .  A
C163       Br170   1.921       .  S
C164        C165   1.401       .  A
C164        H169   1.083       .  S
C165        C166   1.408       .  A
C166       Br167   1.920       .  S
C171        C172   1.395       .  A
C171        C176   1.395       .  A
C171        H178   1.084       .  S
C172        C173   1.405       .  A
C173        C174   1.399       .  A
C173       Br180   1.919       .  S
C174        C175   1.417       .  A
C174        H179   1.078       .  S
C175        C176   1.433       .  A
C176       Br177   1.923       .  S
C181        C182   1.403       .  A
C181        C186   1.395       .  A
C181        H188   1.084       .  S
C182        C183   1.413       .  A
C183        C184   1.403       .  A
C183       Br190   1.919       .  S
C184        C185   1.404       .  A
C184        H189   1.084       .  S
C185        C186   1.411       .  A
C186       Br187   1.922       .  S
C191        C192   1.402       .  A
C191        C196   1.398       .  A
C191        H198   1.083       .  S
C192        C193   1.406       .  A
C193        C194   1.396       .  A
C193       Br200   1.917       .  S
C194        C195   1.404       .  A
C194        H199   1.083       .  S
C195        C196   1.410       .  A
C196       Br197   1.920       .  S
C201        C202   1.406       .  A
C201        C206   1.405       .  A
C201        H208   1.080       .  S
C202        C203   1.413       .  A
C203        C204   1.390       .  A
C203       Br210   1.931       .  S
C204        C205   1.416       .  A
C204        H209   1.078   1_455  S
C205        C206   1.431       .  A
C205        C552   1.576   1_455  S
C206       Br207   1.924       .  S
C211        C212   1.407       .  A
C211        C216   1.394       .  A
C211        H218   1.083       .  S
C212        C213   1.421       .  A
C213        C214   1.400       .  A
C213       Br220   1.922       .  S
C214        C215   1.397       .  A
C214        H219   1.083       .  S
C215        C216   1.405       .  A
C216       Br217   1.920       .  S
C221        C222   1.404       .  A
C221        C226   1.396       .  A
C221        H228   1.083       .  S
C222        C223   1.413       .  A
C223        C224   1.403       .  A
C223       Br230   1.919       .  S
C224        C225   1.404       .  A
C224        H229   1.083       .  S
C225        C226   1.409       .  A
C226       Br227   1.920       .  S
C231        C232   1.397       .  A
C231        C236   1.396       .  A
C231        H238   1.084       .  S
C232        C233   1.401       .  A
C233        C234   1.400       .  A
C233       Br240   1.919       .  S
C234        C235   1.423       .  A
C234        H239   1.076       .  S
C235        C236   1.433       .  A
C235        C551   1.570   1_455  S
C236       Br237   1.923       .  S
C241        C242   1.398       .  A
C241        C246   1.398       .  A
C241        H248   1.084       .  S
C242        C243   1.403       .  A
C243        C244   1.398       .  A
C243       Br250   1.918       .  S
C244        C245   1.409       .  A
C244        H249   1.083       .  S
C245        C246   1.420       .  A
C246       Br247   1.923       .  S
C251        C252   1.408       .  A
C251        C256   1.411       .  A
C251        C472   1.484       .  S
C252        C253   1.396       .  A
C252        H257   1.084       .  S
C253        C254   1.394       .  A
C253        C492   1.470       .  S
C254        C255   1.399       .  A
C254        H258   1.085       .  S
C255        C256   1.408       .  A
C255        C482   1.480       .  S
C256        H259   1.083       .  S
C260        C261   1.400       .  A
C260        C265   1.407       .  A
C260        C442   1.470       .  S
C261        C262   1.392       .  A
C261        H266   1.084       .  S
C262        C263   1.394       .  A
C262        C465   1.469       .  S
C263        C264   1.407       .  A
C263        H267   1.080       .  S
C264        C265   1.414       .  A
C264        C452   1.502       .  S
C265        H268   1.081       .  S
C269        C270   1.407       .  A
C269        C274   1.404       .  A
C269        C445   1.475       .  S
C270        C271   1.402       .  A
C270        H275   1.084       .  S
C271        C272   1.402       .  A
C271        C432   1.485       .  S
C272        C273   1.403       .  A
C272        H276   1.084       .  S
C273        C274   1.400       .  A
C273        C422   1.480       .  S
C274        H277   1.084       .  S
O278       Cu286   1.998       .  S
O278        C288   1.276       .  A
O279       Cu786   1.998   1_455  S
O279        C289   1.274       .  A
O280       Cu786   2.014   1_455  S
O280        C290   1.280       .  A
O281       Cu286   2.016       .  S
O281        C291   1.279       .  A
O282       Cu287   2.001       .  S
O282        C291   1.276       .  A
O283       Cu787   1.996   1_455  S
O283        C290   1.274       .  A
O284       Cu787   2.011   1_455  S
O284        C289   1.280       .  A
O285       Cu287   2.018       .  S
O285        C288   1.280       .  A
Cu286       O779   1.998       .  S
Cu286       O780   2.014       .  S
Cu286      Cu287   2.366       .  S
Cu287       O783   1.996       .  S
Cu287       O784   2.011       .  S
C288        C412   1.483       .  S
C289        C462   1.488       .  S
C290        C495   1.487       .  S
C291        C435   1.478       .  S
C292        C293   1.407       .  A
C292        C297   1.407       .  A
C292        C475   1.481       .  S
C293        C294   1.400       .  A
C293        H298   1.084       .  S
C294        C295   1.399       .  A
C294        C415   1.478       .  S
C295        C296   1.399       .  A
C295        H299   1.084       .  S
C296        C297   1.405       .  A
C296        C402   1.476       .  S
C297        H300   1.084       .  S
C301        C382   1.569       .  S
C301        C392   1.569       .  S
C301        C405   1.571       .  S
C301        C985   1.570       .  S
C302        C362   1.575       .  S
C302        C372   1.573       .  S
C302        C425   1.571       .  S
C302        C955   1.576       .  S
N303        N304   1.323       .  A
N303        C307   1.345       .  A
N303       Cu311   2.076       .  S
N304        C305   1.346       .  A
C305        C306   1.383       .  A
C305        H308   1.083       .  S
C306        C307   1.381       .  A
C306        C395   1.473       .  S
C307        H309   1.082       .  S
Cu310       N313   2.080       .  S
Cu311       N321   2.077       .  S
Cu312       N314   2.073       .  S
Cu312       N320   2.074       .  S
N313        N314   1.323       .  A
N313        C317   1.346       .  A
N314        C315   1.345       .  A
C315        C316   1.381       .  A
C315        H318   1.082       .  S
C316        C317   1.383       .  A
C316        C385   1.472       .  S
C317        H319   1.083       .  S
N320        C324   1.345       .  A
N321        C322   1.346       .  A
C322        H325   1.080       .  S
C323        C324   1.388   1_554  A
C323        C352   1.489       .  S
C324        H326   1.081       .  S
N327        N328   1.319       .  A
N327        C331   1.345       .  A
N327       Cu335   2.076       .  S
N328        C329   1.342       .  A
N328       Cu334   2.064       .  S
C329        C330   1.388       .  A
C329        H332   1.082       .  S
C330        C331   1.390       .  A
C330        C365   1.491       .  S
C331        H333   1.079       .  S
Cu335       N345   2.078       .  S
Cu336       N338   2.080       .  S
Cu336       N344   2.081       .  S
N337        N338   1.322       .  A
N337        C341   1.343       .  A
N338        C339   1.346       .  A
C339        C340   1.385       .  A
C339        H342   1.082       .  S
C340        C341   1.382       .  A
C340        C375   1.477       .  S
C341        H343   1.082       .  S
N344        C348   1.346       .  A
N345        C346   1.345       .  A
C346        C347   1.387       .  A
C346        H349   1.080       .  S
C347        C355   1.487       .  S
C348        H350   1.081       .  S
C351        C352   1.405   1_566  A
C351        C356   1.400       .  A
C351        H358   1.083   1_565  S
C352        C603   1.414   1_545  A
C353        C602   1.414   1_465  A
C353        C354   1.402       .  A
C353       Br360   1.920   1_565  S
C354        C605   1.405   1_455  A
C354        H359   1.083       .  S
C355        C604   1.405   1_556  A
C355        C356   1.412       .  A
C356       Br357   1.920       .  S
C361        C862   1.420       .  A
C361        C366   1.399   1_655  A
C361        H368   1.078   1_655  S
C362        C861   1.420       .  A
C362        C363   1.434       .  A
C363        C364   1.397       .  A
C363       Br370   1.925       .  S
C364        C365   1.399       .  A
C364        H369   1.082       .  S
C365        C866   1.408       .  A
C366        C865   1.408   1_455  A
C366       Br367   1.920       .  S
C371        C872   1.418   1_455  A
C371        C376   1.395       .  A
C371        H378   1.076       .  S
C372        C871   1.418       .  A
C372        C373   1.433       .  A
C373        C374   1.400       .  A
C373       Br380   1.923       .  S
C374        C375   1.396       .  A
C374        H379   1.084       .  S
C375        C876   1.403       .  A
C376        C875   1.403   1_455  A
C376       Br377   1.921       .  S
C381        C382   1.417       .  A
C381        C386   1.399       .  A
C381        H388   1.080       .  S
C382        C883   1.435       .  A
C383        C882   1.435   1_455  A
C383        C384   1.399       .  A
C383       Br390   1.929       .  S
C384        C885   1.394   1_455  A
C384        H389   1.084       .  S
C385        C884   1.394       .  A
C385        C386   1.402       .  A
C386       Br387   1.917       .  S
C391        C892   1.417   1_455  A
C391        C396   1.398       .  A
C391        H398   1.079       .  S
C392        C891   1.417       .  A
C392        C393   1.436       .  A
C393        C394   1.400       .  A
C393       Br400   1.928       .  S
C394        C395   1.394       .  A
C394        H399   1.084       .  S
C395        C896   1.401       .  A
C396        C895   1.401   1_455  A
C396       Br397   1.918       .  S
C401        C402   1.395       .  A
C401        C406   1.398       .  A
C401        H408   1.084       .  S
C402        C403   1.399       .  A
C403        C404   1.399       .  A
C403       Br410   1.919       .  S
C404        C405   1.423       .  A
C404        H409   1.075       .  S
C405        C406   1.434       .  A
C406       Br407   1.922       .  S
C411        C412   1.406       .  A
C411        C416   1.399       .  A
C411        H418   1.083       .  S
C412        C413   1.415       .  A
C413        C414   1.399       .  A
C413       Br420   1.921       .  S
C414        C415   1.401       .  A
C414        H419   1.083       .  S
C415        C416   1.408       .  A
C416       Br417   1.920       .  S
C421        C422   1.395       .  A
C421        C426   1.395       .  A
C421        H428   1.084       .  S
C422        C423   1.405       .  A
C423        C424   1.399       .  A
C423       Br430   1.919       .  S
C424        C425   1.417       .  A
C424        H429   1.078       .  S
C425        C426   1.433       .  A
C426       Br427   1.923       .  S
C431        C432   1.403       .  A
C431        C436   1.395       .  A
C431        H438   1.084       .  S
C432        C433   1.413       .  A
C433        C434   1.403       .  A
C433       Br440   1.919       .  S
C434        C435   1.404       .  A
C434        H439   1.084       .  S
C435        C436   1.411       .  A
C436       Br437   1.922       .  S
C441        C442   1.402       .  A
C441        C446   1.398       .  A
C441        H448   1.083       .  S
C442        C443   1.406       .  A
C443        C444   1.396       .  A
C443       Br450   1.917       .  S
C444        C445   1.404       .  A
C444        H449   1.083       .  S
C445        C446   1.410       .  A
C446       Br447   1.920       .  S
C451        C452   1.406       .  A
C451        C456   1.405       .  A
C451        H458   1.080       .  S
C452        C453   1.413       .  A
C453        C454   1.390       .  A
C453       Br460   1.931       .  S
C454        C455   1.416       .  A
C454        H459   1.078   1_455  S
C455        C456   1.431       .  A
C455        C802   1.576   1_455  S
C456       Br457   1.924       .  S
C461        C462   1.407       .  A
C461        C466   1.394       .  A
C461        H468   1.083       .  S
C462        C463   1.421       .  A
C463        C464   1.400       .  A
C463       Br470   1.922       .  S
C464        C465   1.397       .  A
C464        H469   1.083       .  S
C465        C466   1.405       .  A
C466       Br467   1.920       .  S
C471        C472   1.404       .  A
C471        C476   1.396       .  A
C471        H478   1.083       .  S
C472        C473   1.413       .  A
C473        C474   1.403       .  A
C473       Br480   1.919       .  S
C474        C475   1.404       .  A
C474        H479   1.083       .  S
C475        C476   1.409       .  A
C476       Br477   1.920       .  S
C481        C482   1.397       .  A
C481        C486   1.396       .  A
C481        H488   1.084       .  S
C482        C483   1.401       .  A
C483        C484   1.400       .  A
C483       Br490   1.919       .  S
C484        C485   1.423       .  A
C484        H489   1.076       .  S
C485        C486   1.433       .  A
C485        C801   1.570   1_455  S
C486       Br487   1.923       .  S
C491        C492   1.398       .  A
C491        C496   1.398       .  A
C491        H498   1.084       .  S
C492        C493   1.403       .  A
C493        C494   1.398       .  A
C493       Br500   1.918       .  S
C494        C495   1.409       .  A
C494        H499   1.083       .  S
C495        C496   1.420       .  A
C496       Br497   1.923       .  S
C501        C502   1.408       .  A
C501        C506   1.411       .  A
C501        C722   1.484       .  S
C502        C503   1.396       .  A
C502        H507   1.084       .  S
C503        C504   1.394       .  A
C503        C742   1.470       .  S
C504        C505   1.399       .  A
C504        H508   1.085       .  S
C505        C506   1.408       .  A
C505        C732   1.480       .  S
C506        H509   1.083       .  S
C510        C511   1.400       .  A
C510        C515   1.407       .  A
C510        C692   1.470       .  S
C511        C512   1.392       .  A
C511        H516   1.084       .  S
C512        C513   1.394       .  A
C512        C715   1.469       .  S
C513        C514   1.407       .  A
C513        H517   1.080       .  S
C514        C515   1.414       .  A
C514        C702   1.502       .  S
C515        H518   1.081       .  S
C519        C520   1.407       .  A
C519        C524   1.404       .  A
C519        C695   1.475       .  S
C520        C521   1.402       .  A
C520        H525   1.084       .  S
C521        C522   1.402       .  A
C521        C682   1.485       .  S
C522        C523   1.403       .  A
C522        H526   1.084       .  S
C523        C524   1.400       .  A
C523        C672   1.480       .  S
C524        H527   1.084       .  S
O528       Cu536   1.998       .  S
O528        C538   1.276       .  A
O529        C539   1.274       .  A
O530        C540   1.280       .  A
O531       Cu536   2.016       .  S
O531        C541   1.279       .  A
O532       Cu537   2.001       .  S
O532        C541   1.276       .  A
O533        C540   1.274       .  A
O534        C539   1.280       .  A
O535       Cu537   2.018       .  S
O535        C538   1.280       .  A
Cu536      Cu537   2.366       .  S
C538        C662   1.483       .  S
C539        C712   1.488       .  S
C540        C745   1.487       .  S
C541        C685   1.478       .  S
C542        C543   1.407       .  A
C542        C547   1.407       .  A
C542        C725   1.481       .  S
C543        C544   1.400       .  A
C543        H548   1.084       .  S
C544        C545   1.399       .  A
C544        C665   1.478       .  S
C545        C546   1.399       .  A
C545        H549   1.084       .  S
C546        C547   1.405       .  A
C546        C652   1.476       .  S
C547        H550   1.084       .  S
C551        C632   1.569       .  S
C551        C642   1.569       .  S
C551        C655   1.571       .  S
C552        C612   1.575       .  S
C552        C622   1.573       .  S
C552        C675   1.571       .  S
N553        N554   1.323       .  A
N553        C557   1.345       .  A
N553       Cu561   2.076       .  S
N554        C555   1.346       .  A
N554       Cu810   2.080   1_554  S
C555        C556   1.383       .  A
C555        H558   1.083       .  S
C556        C557   1.381       .  A
C556        C645   1.473       .  S
C557        H559   1.082       .  S
Cu560       N804   2.080       .  S
Cu560       N563   2.080       .  S
Cu561       N571   2.077       .  S
Cu562       N564   2.073       .  S
Cu562       N570   2.074       .  S
N563        N564   1.323       .  A
N563        C567   1.346       .  A
N564        C565   1.345       .  A
C565        C566   1.381       .  A
C565        H568   1.082       .  S
C566        C567   1.383       .  A
C566        C635   1.472       .  S
C567        H569   1.083       .  S
N570        N821   1.320       .  A
N570        C574   1.345       .  A
N571        N820   1.320   1_554  A
N571        C572   1.346       .  A
C572        C823   1.389       .  A
C572        H575   1.080       .  S
C573        C822   1.389       .  A
C573        C574   1.388       .  A
C573        C602   1.489       .  S
C574        H576   1.081       .  S
N577        N578   1.319   1_655  A
N577        C581   1.345       .  A
N577       Cu585   2.076       .  S
N578        C579   1.342       .  A
N578       Cu584   2.064       .  S
C579        C580   1.388   1_455  A
C579        H582   1.082       .  S
C580        C581   1.390       .  A
C580        C615   1.491       .  S
C581        H583   1.079       .  S
Cu584       N837   2.065   1_455  S
Cu585       N595   2.078       .  S
Cu586       N588   2.080       .  S
Cu586       N594   2.081       .  S
N587        N588   1.322       .  A
N587        C591   1.343   1_655  A
N587       Cu834   2.065   1_654  S
N588        C589   1.346       .  A
C589        C590   1.385       .  A
C589        H592   1.082       .  S
C590        C591   1.382   1_655  A
C590        C625   1.477       .  S
C591        H593   1.082       .  S
N594        N845   1.322   1_554  A
N594        C598   1.346       .  A
N595        N844   1.322       .  A
N595        C596   1.345       .  A
C596        C597   1.387       .  A
C596        H599   1.080       .  S
C597        C848   1.387       .  A
C597        C605   1.487       .  S
C598        C847   1.387   1_554  A
C598        H600   1.081       .  S
C601        C602   1.405   1_565  A
C601        C606   1.400       .  A
C601        H608   1.083   1_565  S
C603        C604   1.402       .  A
C603       Br610   1.920   1_565  S
C604        H609   1.083       .  S
C605        C606   1.412       .  A
C606       Br607   1.920       .  S
C611        C616   1.399       .  A
C611        H618   1.078       .  S
C612        C613   1.434       .  A
C613        C614   1.397       .  A
C613       Br620   1.925       .  S
C614        C615   1.399       .  A
C614        H619   1.082       .  S
C616       Br617   1.920       .  S
C621        C626   1.395       .  A
C621        H628   1.076       .  S
C622        C623   1.433       .  A
C623        C624   1.400       .  A
C623       Br630   1.923       .  S
C624        C625   1.396       .  A
C624        H629   1.084       .  S
C626       Br627   1.921       .  S
C631        C632   1.417       .  A
C631        C636   1.399       .  A
C631        H638   1.080       .  S
C633        C634   1.399       .  A
C633       Br640   1.929       .  S
C634        H639   1.084       .  S
C635        C636   1.402       .  A
C636       Br637   1.917       .  S
C641        C646   1.398       .  A
C641        H648   1.079       .  S
C642        C643   1.436       .  A
C643        C644   1.400       .  A
C643       Br650   1.928       .  S
C644        C645   1.394       .  A
C644        H649   1.084       .  S
C646       Br647   1.918       .  S
C651        C652   1.395       .  A
C651        C656   1.398       .  A
C651        H658   1.084       .  S
C652        C653   1.399       .  A
C653        C654   1.399       .  A
C653       Br660   1.919       .  S
C654        C655   1.423       .  A
C654        H659   1.075       .  S
C655        C656   1.434       .  A
C656       Br657   1.922       .  S
C661        C662   1.406       .  A
C661        C666   1.399       .  A
C661        H668   1.083       .  S
C662        C663   1.415       .  A
C663        C664   1.399       .  A
C663       Br670   1.921       .  S
C664        C665   1.401       .  A
C664        H669   1.083       .  S
C665        C666   1.408       .  A
C666       Br667   1.920       .  S
C671        C672   1.395       .  A
C671        C676   1.395       .  A
C671        H678   1.084       .  S
C672        C673   1.405       .  A
C673        C674   1.399       .  A
C673       Br680   1.919       .  S
C674        C675   1.417       .  A
C674        H679   1.078       .  S
C675        C676   1.433       .  A
C676       Br677   1.923       .  S
C681        C682   1.403       .  A
C681        C686   1.395       .  A
C681        H688   1.084       .  S
C682        C683   1.413       .  A
C683        C684   1.403       .  A
C683       Br690   1.919       .  S
C684        C685   1.404       .  A
C684        H689   1.084       .  S
C685        C686   1.411       .  A
C686       Br687   1.922       .  S
C691        C692   1.402       .  A
C691        C696   1.398       .  A
C691        H698   1.083       .  S
C692        C693   1.406       .  A
C693        C694   1.396       .  A
C693       Br700   1.917       .  S
C694        C695   1.404       .  A
C694        H699   1.083       .  S
C695        C696   1.410       .  A
C696       Br697   1.920       .  S
C701        C702   1.406       .  A
C701        C706   1.405       .  A
C701        H708   1.080       .  S
C702        C703   1.413       .  A
C703        C704   1.390       .  A
C703       Br710   1.931       .  S
C704        C705   1.416       .  A
C704        H709   1.078       .  S
C705        C706   1.431       .  A
C706       Br707   1.924       .  S
C711        C712   1.407       .  A
C711        C716   1.394       .  A
C711        H718   1.083       .  S
C712        C713   1.421       .  A
C713        C714   1.400       .  A
C713       Br720   1.922       .  S
C714        C715   1.397       .  A
C714        H719   1.083       .  S
C715        C716   1.405       .  A
C716       Br717   1.920       .  S
C721        C722   1.404       .  A
C721        C726   1.396       .  A
C721        H728   1.083       .  S
C722        C723   1.413       .  A
C723        C724   1.403       .  A
C723       Br730   1.919       .  S
C724        C725   1.404       .  A
C724        H729   1.083       .  S
C725        C726   1.409       .  A
C726       Br727   1.920       .  S
C731        C732   1.397       .  A
C731        C736   1.396       .  A
C731        H738   1.084       .  S
C732        C733   1.401       .  A
C733        C734   1.400       .  A
C733       Br740   1.919       .  S
C734        C735   1.423       .  A
C734        H739   1.076       .  S
C735        C736   1.433       .  A
C736       Br737   1.923       .  S
C741        C742   1.398       .  A
C741        C746   1.398       .  A
C741        H748   1.084       .  S
C742        C743   1.403       .  A
C743        C744   1.398       .  A
C743       Br750   1.918       .  S
C744        C745   1.409       .  A
C744        H749   1.083       .  S
C745        C746   1.420       .  A
C746       Br747   1.923       .  S
C751        C752   1.408       .  A
C751        C756   1.411       .  A
C751        C972   1.484       .  S
C752        C753   1.396       .  A
C752        H757   1.084       .  S
C753        C754   1.394       .  A
C753        C992   1.470       .  S
C754        C755   1.399       .  A
C754        H758   1.085       .  S
C755        C756   1.408       .  A
C755        C982   1.480       .  S
C756        H759   1.083       .  S
C760        C761   1.400       .  A
C760        C765   1.407       .  A
C760        C942   1.470       .  S
C761        C762   1.392       .  A
C761        H766   1.084       .  S
C762        C763   1.394       .  A
C762        C965   1.469       .  S
C763        C764   1.407       .  A
C763        H767   1.080       .  S
C764        C765   1.414       .  A
C764        C952   1.502       .  S
C765        H768   1.081       .  S
C769        C770   1.407       .  A
C769        C774   1.404       .  A
C769        C945   1.475       .  S
C770        C771   1.402       .  A
C770        H775   1.084       .  S
C771        C772   1.402       .  A
C771        C932   1.485       .  S
C772        C773   1.403       .  A
C772        H776   1.084       .  S
C773        C774   1.400       .  A
C773        C922   1.480       .  S
C774        H777   1.084       .  S
O778       Cu786   1.998       .  S
O778        C788   1.276       .  A
O779        C789   1.274       .  A
O780        C790   1.280       .  A
O781       Cu786   2.016       .  S
O781        C791   1.279       .  A
O782       Cu787   2.001       .  S
O782        C791   1.276       .  A
O783        C790   1.274       .  A
O784        C789   1.280       .  A
O785       Cu787   2.018       .  S
O785        C788   1.280       .  A
Cu786      Cu787   2.366       .  S
C788        C912   1.483       .  S
C789        C962   1.488       .  S
C790        C995   1.487       .  S
C791        C935   1.478       .  S
C792        C793   1.407       .  A
C792        C797   1.407       .  A
C792        C975   1.481       .  S
C793        C794   1.400       .  A
C793        H798   1.084       .  S
C794        C795   1.399       .  A
C794        C915   1.478       .  S
C795        C796   1.399       .  A
C795        H799   1.084       .  S
C796        C797   1.405       .  A
C796        C902   1.476       .  S
C797        H800   1.084       .  S
C801        C882   1.569       .  S
C801        C892   1.569       .  S
C801        C905   1.571       .  S
C802        C862   1.575       .  S
C802        C872   1.573       .  S
C802        C925   1.571       .  S
N803        N804   1.323       .  A
N803        C807   1.345       .  A
N803       Cu811   2.076       .  S
N804        C805   1.346       .  A
C805        C806   1.383       .  A
C805        H808   1.083       .  S
C806        C807   1.381       .  A
C806        C895   1.473       .  S
C807        H809   1.082       .  S
Cu810       N813   2.080       .  S
Cu811       N821   2.077       .  S
Cu812       N814   2.073       .  S
Cu812       N820   2.074       .  S
N813        N814   1.323       .  A
N813        C817   1.346       .  A
N814        C815   1.345       .  A
C815        C816   1.381       .  A
C815        H818   1.082       .  S
C816        C817   1.383       .  A
C816        C885   1.472       .  S
C817        H819   1.083       .  S
N820        C824   1.345       .  A
N821        C822   1.346       .  A
C822        H825   1.080       .  S
C823        C824   1.388   1_554  A
C823        C852   1.489       .  S
C824        H826   1.081       .  S
N827        N828   1.319   1_655  A
N827        C831   1.345       .  A
N827       Cu835   2.076       .  S
N828        C829   1.342       .  A
N828       Cu834   2.064       .  S
C829        C830   1.388   1_455  A
C829        H832   1.082       .  S
C830        C831   1.390       .  A
C830        C865   1.491       .  S
C831        H833   1.079       .  S
Cu835       N845   2.078       .  S
Cu836       N838   2.080       .  S
Cu836       N844   2.081       .  S
N837        N838   1.322       .  A
N837        C841   1.343   1_655  A
N838        C839   1.346       .  A
C839        C840   1.385       .  A
C839        H842   1.082       .  S
C840        C841   1.382   1_655  A
C840        C875   1.477       .  S
C841        H843   1.082       .  S
N844        C848   1.346       .  A
N845        C846   1.345       .  A
C846        C847   1.387       .  A
C846        H849   1.080       .  S
C847        C855   1.487       .  S
C848        H850   1.081       .  S
C851        C852   1.405   1_566  A
C851        C856   1.400       .  A
C851        H858   1.083   1_565  S
C853        C854   1.402       .  A
C853       Br860   1.920   1_565  S
C854        H859   1.083       .  S
C855        C856   1.412       .  A
C856       Br857   1.920       .  S
C861        C866   1.399       .  A
C861        H868   1.078       .  S
C862        C863   1.434       .  A
C863        C864   1.397       .  A
C863       Br870   1.925       .  S
C864        C865   1.399       .  A
C864        H869   1.082       .  S
C866       Br867   1.920       .  S
C871        C876   1.395       .  A
C871        H878   1.076       .  S
C872        C873   1.433       .  A
C873        C874   1.400       .  A
C873       Br880   1.923       .  S
C874        C875   1.396       .  A
C874        H879   1.084       .  S
C876       Br877   1.921       .  S
C881        C882   1.417       .  A
C881        C886   1.399       .  A
C881        H888   1.080       .  S
C883        C884   1.399       .  A
C883       Br890   1.929       .  S
C884        H889   1.084       .  S
C885        C886   1.402       .  A
C886       Br887   1.917       .  S
C891        C896   1.398       .  A
C891        H898   1.079       .  S
C892        C893   1.436       .  A
C893        C894   1.400       .  A
C893       Br900   1.928       .  S
C894        C895   1.394       .  A
C894        H899   1.084       .  S
C896       Br897   1.918       .  S
C901        C902   1.395       .  A
C901        C906   1.398       .  A
C901        H908   1.084       .  S
C902        C903   1.399       .  A
C903        C904   1.399       .  A
C903       Br910   1.919       .  S
C904        C905   1.423       .  A
C904        H909   1.075       .  S
C905        C906   1.434       .  A
C906       Br907   1.922       .  S
C911        C912   1.406       .  A
C911        C916   1.399       .  A
C911        H918   1.083       .  S
C912        C913   1.415       .  A
C913        C914   1.399       .  A
C913       Br920   1.921       .  S
C914        C915   1.401       .  A
C914        H919   1.083       .  S
C915        C916   1.408       .  A
C916       Br917   1.920       .  S
C921        C922   1.395       .  A
C921        C926   1.395       .  A
C921        H928   1.084       .  S
C922        C923   1.405       .  A
C923        C924   1.399       .  A
C923       Br930   1.919       .  S
C924        C925   1.417       .  A
C924        H929   1.078       .  S
C925        C926   1.433       .  A
C926       Br927   1.923       .  S
C931        C932   1.403       .  A
C931        C936   1.395       .  A
C931        H938   1.084       .  S
C932        C933   1.413       .  A
C933        C934   1.403       .  A
C933       Br940   1.919       .  S
C934        C935   1.404       .  A
C934        H939   1.084       .  S
C935        C936   1.411       .  A
C936       Br937   1.922       .  S
C941        C942   1.402       .  A
C941        C946   1.398       .  A
C941        H948   1.083       .  S
C942        C943   1.406       .  A
C943        C944   1.396       .  A
C943       Br950   1.917       .  S
C944        C945   1.404       .  A
C944        H949   1.083       .  S
C945        C946   1.410       .  A
C946       Br947   1.920       .  S
C951        C952   1.406       .  A
C951        C956   1.405       .  A
C951        H958   1.080       .  S
C952        C953   1.413       .  A
C953        C954   1.390       .  A
C953       Br960   1.931       .  S
C954        C955   1.416       .  A
C954        H959   1.078       .  S
C955        C956   1.431       .  A
C956       Br957   1.924       .  S
C961        C962   1.407       .  A
C961        C966   1.394       .  A
C961        H968   1.083       .  S
C962        C963   1.421       .  A
C963        C964   1.400       .  A
C963       Br970   1.922       .  S
C964        C965   1.397       .  A
C964        H969   1.083       .  S
C965        C966   1.405       .  A
C966       Br967   1.920       .  S
C971        C972   1.404       .  A
C971        C976   1.396       .  A
C971        H978   1.083       .  S
C972        C973   1.413       .  A
C973        C974   1.403       .  A
C973       Br980   1.919       .  S
C974        C975   1.404       .  A
C974        H979   1.083       .  S
C975        C976   1.409       .  A
C976       Br977   1.920       .  S
C981        C982   1.397       .  A
C981        C986   1.396       .  A
C981        H988   1.084       .  S
C982        C983   1.401       .  A
C983        C984   1.400       .  A
C983       Br990   1.919       .  S
C984        C985   1.423       .  A
C984        H989   1.076       .  S
C985        C986   1.433       .  A
C986       Br987   1.923       .  S
C991        C992   1.398       .  A
C991        C996   1.398       .  A
C991        H998   1.084       .  S
C992        C993   1.403       .  A
C993        C994   1.398       .  A
C993      Br1000   1.918       .  S
C994        C995   1.409       .  A
C994        H999   1.083       .  S
C995        C996   1.420       .  A
C996       Br997   1.923       .  S
