geometry optimzed in LAMMPS
_audit_creation_date              2020-11-30 
_audit_creation_method            'lammps2cif' 
_symmetry_space_group_name_H-M    'P1' 
_symmetry_Int_Tables_number       1 
_symmetry_cell_setting            triclinic 
loop_ 
_symmetry_equiv_pos_as_xyz 
  x,y,z 
_cell_length_a                    58.46296825846677 
_cell_length_b                    51.799490272961656 
_cell_length_c                    49.34814566102523 
_cell_angle_alpha                 89.98277312953427 
_cell_angle_beta                  89.80805431275544 
_cell_angle_gamma                 89.95613063530946 
loop_ 
_atom_site_label 
_atom_site_type_symbol 
_atom_site_fract_x 
_atom_site_fract_y 
_atom_site_fract_z 
_atom_site_charge 
N1          N  0.36148362  0.93056508  0.54502950    -0.27140
N2          N  0.37905155  0.94624928  0.54824713    -0.35000
C3          C  0.38111153  0.96126130  0.52627760     0.01200
C4          C  0.36437155  0.95453693  0.50774890     0.07230
C5          C  0.35221586  0.93484830  0.52043780    -0.05870
H6          H  0.39519772  0.97443737  0.52295487     0.07890
H7          H  0.33917331  0.92275893  0.51166626     0.09090
Cu8        Cu  0.40379392  0.94165333  0.57765604     0.44170
Cu9        Cu  0.35334666  0.90222508  0.57337287     0.41990
Cu10       Cu  0.39437594  0.89640299  0.63001847     0.43880
N11         N  0.42984234  0.92798118  0.60200546    -0.34530
N12         N  0.42642273  0.91146266  0.62194020    -0.28780
C13         C  0.44675805  0.90443004  0.63235210    -0.04880
C14         C  0.46392447  0.91679357  0.61779655     0.07340
C15         C  0.45240664  0.93176006  0.59894908     0.01130
H16         H  0.44861102  0.89109710  0.64897026     0.08780
H17         H  0.45997456  0.94372091  0.58333799     0.07860
N18         N  0.36392136  0.87631502  0.62704058    -0.35970
N19         N  0.34974725  0.87727370  0.60621060    -0.28150
C20         C  0.33358558  0.85905522  0.60954613    -0.03390
C21         C  0.33799538  0.84581911  0.63336484     0.05220
C22         C  0.35703420  0.85774150  0.64418417     0.03310
H23         H  0.32008320  0.85510530  0.59519637     0.08420
H24         H  0.36558549  0.85323838  0.66293014     0.07250
N25         N  0.67333984  0.92680728  0.54833219    -0.27140
N26         N  0.65213069  0.93373066  0.54263304    -0.35000
C27         C  0.65189814  0.94669899  0.51917516     0.01200
C28         C  0.67393595  0.94799457  0.50919003     0.07230
C29         C  0.68724919  0.93529511  0.52831778    -0.05870
H30         H  0.63660910  0.95419922  0.50969138     0.07890
H31         H  0.70554543  0.93242873  0.52790948     0.09090
Cu32       Cu  0.62364764  0.92507611  0.56556274     0.44170
Cu33       Cu  0.68119116  0.90464754  0.58241116     0.41990
Cu34       Cu  0.62994237  0.88491099  0.62212396     0.43880
N35         N  0.59658119  0.91615108  0.59067839    -0.34530
N36         N  0.59882951  0.90150867  0.61236314    -0.28780
C37         C  0.57831714  0.89920744  0.62459496    -0.04880
C38         C  0.56247652  0.91338988  0.60993080     0.07340
C39         C  0.57465047  0.92343261  0.58827059     0.01130
H40         H  0.57508810  0.88779296  0.64256687     0.08780
H41         H  0.56804246  0.93422895  0.57129371     0.07860
N42         N  0.66258586  0.87011262  0.62702951    -0.35970
N43         N  0.68119229  0.87792455  0.61411939    -0.28150
C44         C  0.69901409  0.86360950  0.62260946    -0.03390
C45         C  0.69129115  0.84575270  0.64162892     0.05220
C46         C  0.66798695  0.85035725  0.64339520     0.03310
H47         H  0.71621433  0.86548567  0.61471769     0.08420
H48         H  0.65543699  0.83951449  0.65465606     0.07250
N49         N  0.67509838  0.01015709  0.36328792    -0.27140
N50         N  0.65515441  0.99820201  0.36480654    -0.35000
C51         C  0.65422639  0.98464699  0.38798211     0.01200
C52         C  0.67444312  0.98837933  0.40181426     0.07230
C53         C  0.68735612  0.00461272  0.38562497    -0.05870
H54         H  0.63929021  0.97436744  0.39517811     0.07890
H55         H  0.70376606  0.01303128  0.39047969     0.09090
Cu56       Cu  0.62836425  0.00428640  0.33815320     0.44170
Cu57       Cu  0.68316519  0.03602035  0.33259195     0.41990
Cu58       Cu  0.63794406  0.04739835  0.28264616     0.43880
N59         N  0.60244603  0.01718195  0.31299012    -0.34530
N60         N  0.60590798  0.03298635  0.29234888    -0.28780
C61         C  0.58557072  0.03964405  0.28166527    -0.04880
C62         C  0.56859616  0.02749987  0.29646751     0.07340
C63         C  0.57985068  0.01332940  0.31603503     0.01130
H64         H  0.58327986  0.05316958  0.26518643     0.08780
H65         H  0.57214367  0.00188989  0.33197281     0.07860
N66         N  0.66930221  0.06597537  0.28268870    -0.35970
N67         N  0.68534266  0.06259544  0.30119734    -0.28150
C68         C  0.70188005  0.08027106  0.29732888    -0.03390
C69         C  0.69579313  0.09569795  0.27561580     0.05220
C70         C  0.67530572  0.08568308  0.26647332     0.03310
H71         H  0.71671987  0.08250293  0.31015452     0.08420
H72         H  0.66517471  0.09236618  0.24962351     0.07250
N73         N  0.36530022  0.00866280  0.35704235    -0.27140
N74         N  0.38341972  0.99381816  0.35331017    -0.35000
C75         C  0.38641482  0.97899893  0.37531857     0.01200
C76         C  0.37019892  0.98569950  0.39463901     0.07230
C77         C  0.35671768  0.00415197  0.38196193    -0.05870
H78         H  0.40041698  0.96565501  0.37749168     0.07890
H79         H  0.34276031  0.01492128  0.39094477     0.09090
Cu80       Cu  0.40810155  0.00019131  0.32377186     0.44170
Cu81       Cu  0.35549259  0.03703005  0.32969914     0.41990
Cu82       Cu  0.40396633  0.06175471  0.29151416     0.43880
N83         N  0.43545069  0.01772301  0.30413483    -0.34530
N84         N  0.43413444  0.04096116  0.29319230    -0.28780
C85         C  0.45516035  0.04852204  0.28537618    -0.04880
C86         C  0.47038061  0.02893551  0.29140493     0.07340
C87         C  0.45737050  0.00984684  0.30355994     0.01130
H88         H  0.45919272  0.06724583  0.27690450     0.08780
H89         H  0.46359061  0.99226566  0.31281458     0.07860
N90         N  0.37128589  0.07692535  0.28959460    -0.35970
N91         N  0.35328483  0.06715886  0.30208721    -0.28150
C92         C  0.33461048  0.08074147  0.29498877    -0.03390
C93         C  0.34119399  0.10063526  0.27762263     0.05220
C94         C  0.36467047  0.09725739  0.27477923     0.03310
H95         H  0.31773437  0.07592895  0.30206059     0.08420
H96         H  0.37632073  0.10889093  0.26287550     0.07250
N97         N  0.36375714  0.43348237  0.35786448    -0.27140
N98         N  0.38246099  0.44768655  0.35590001    -0.35000
C99         C  0.38419181  0.46258794  0.37800500     0.01200
C100        C  0.36595563  0.45743893  0.39517730     0.07230
C101        C  0.35335801  0.43871850  0.38168682    -0.05870
H102        H  0.39894953  0.47439170  0.38256525     0.07890
H103        H  0.33913819  0.42774588  0.38963337     0.09090
Cu104      Cu  0.40862992  0.44137282  0.32821037     0.44170
Cu105      Cu  0.35539366  0.40501519  0.32974481     0.41990
Cu106      Cu  0.40156304  0.38967326  0.28207134     0.43880
N107        N  0.43552720  0.42620432  0.30577036    -0.34530
N108        N  0.43288423  0.40685292  0.28865008    -0.28780
C109        C  0.45353182  0.39913561  0.27965225    -0.04880
C110        C  0.46992186  0.41453088  0.29160059     0.07340
C111        C  0.45797465  0.43129222  0.30824912     0.01130
H112        H  0.45646495  0.38258437  0.26673046     0.08780
H113        H  0.46514764  0.44508744  0.32230774     0.07860
N114        N  0.36953258  0.37295197  0.28129505    -0.35970
N115        N  0.35272079  0.37812305  0.29848723    -0.28150
C116        C  0.33482431  0.36271656  0.29272029    -0.03390
C117        C  0.34070973  0.34744272  0.27073104     0.05220
C118        C  0.36286342  0.35422903  0.26427990     0.03310
H119        H  0.31897293  0.36218443  0.30408076     0.08420
H120        H  0.37358710  0.34570799  0.24876429     0.07250
N121        N  0.67380832  0.42809923  0.36784161    -0.27140
N122        N  0.65258385  0.43659443  0.37003667    -0.35000
C123        C  0.65059183  0.45102316  0.39242767     0.01200
C124        C  0.67169432  0.45233818  0.40486849     0.07230
C125        C  0.68600871  0.43716229  0.38895099    -0.05870
H126        H  0.63468163  0.45926823  0.39956088     0.07890
H127        H  0.70378511  0.43264586  0.39271983     0.09090
Cu128      Cu  0.62654426  0.42755282  0.34379247     0.44170
Cu129      Cu  0.68369400  0.40332106  0.33674698     0.41990
Cu130      Cu  0.63738892  0.38686240  0.28783796     0.43880
N131        N  0.60114187  0.41548513  0.31802390    -0.34530
N132        N  0.60480796  0.40020991  0.29704401    -0.28780
C133        C  0.58455743  0.39445817  0.28553507    -0.04880
C134        C  0.56750378  0.40659077  0.30035847     0.07340
C135        C  0.57864811  0.41997495  0.32052265     0.01130
H136        H  0.58235959  0.38177064  0.26833289     0.08780
H137        H  0.57094597  0.43166653  0.33626386     0.07860
N138        N  0.67056693  0.37258742  0.28665319    -0.35970
N139        N  0.68692869  0.37781869  0.30434335    -0.28150
C140        C  0.70507989  0.36259938  0.29904549    -0.03390
C141        C  0.69998462  0.34749005  0.27680900     0.05220
C142        C  0.67798736  0.35414837  0.26962564     0.03310
H143        H  0.72041714  0.36176174  0.31121924     0.08420
H144        H  0.66759611  0.34509492  0.25422184     0.07250
N145        N  0.36428587  0.51601185  0.54350443    -0.27140
N146        N  0.37977999  0.49855760  0.55007366    -0.35000
C147        C  0.38218920  0.48177162  0.52957420     0.01200
C148        C  0.36854600  0.48963313  0.50815218     0.07230
C149        C  0.35696755  0.51112171  0.51815103    -0.05870
H150        H  0.39415133  0.46601824  0.53008357     0.07890
H151        H  0.34519718  0.52332851  0.50713573     0.09090
Cu152      Cu  0.40309022  0.50295363  0.58126451     0.44170
Cu153      Cu  0.35585629  0.54687965  0.56874779     0.41990
Cu154      Cu  0.39960079  0.56121718  0.61904677     0.43880
N155        N  0.43105733  0.51918813  0.60059588    -0.34530
N156        N  0.42991108  0.54123641  0.61395786    -0.28780
C157        C  0.45119490  0.54886142  0.62044875    -0.04880
C158        C  0.46650510  0.53091587  0.61027516     0.07340
C159        C  0.45311550  0.51215275  0.59819038     0.01130
H160        H  0.45529513  0.56679923  0.63054677     0.08780
H161        H  0.45891314  0.49502160  0.58772405     0.07860
N162        N  0.36805320  0.57918823  0.61763901    -0.35970
N163        N  0.35220365  0.57449432  0.59920269    -0.28150
C164        C  0.33426778  0.59027838  0.60370546    -0.03390
C165        C  0.33926492  0.60563978  0.62585981     0.05220
C166        C  0.36065735  0.59792179  0.63432062     0.03310
H167        H  0.31878866  0.59051539  0.59176549     0.08420
H168        H  0.37036600  0.60574335  0.65103678     0.07250
N169        N  0.67286844  0.50917477  0.55253734    -0.27140
N170        N  0.65326910  0.49647582  0.55203823    -0.35000
C171        C  0.65250146  0.48200277  0.52948286     0.01200
C172        C  0.67265097  0.48550599  0.51525141     0.07230
C173        C  0.68509446  0.50306201  0.53027762    -0.05870
H174        H  0.63760860  0.47142295  0.52277877     0.07890
H175        H  0.70097842  0.51223141  0.52441815     0.09090
Cu176      Cu  0.62648713  0.50322889  0.57872448     0.44170
Cu177      Cu  0.68032224  0.53708739  0.58125255     0.41990
Cu178      Cu  0.63458900  0.55181879  0.62946667     0.43880
N179        N  0.59999301  0.51827756  0.60181549    -0.34530
N180        N  0.60271556  0.53674072  0.61995193    -0.28780
C181        C  0.58198706  0.54487972  0.62838574    -0.04880
C182        C  0.56534953  0.53048999  0.61521331     0.07340
C183        C  0.57754692  0.51394898  0.59845601     0.01130
H184        H  0.57945742  0.56122658  0.64159140     0.08780
H185        H  0.57053888  0.50057232  0.58384088     0.07860
N186        N  0.66711975  0.56779844  0.63082268    -0.35970
N187        N  0.68317633  0.56367343  0.61244270    -0.28150
C188        C  0.70069749  0.57990892  0.61691057    -0.03390
C189        C  0.69580077  0.59470188  0.63968106     0.05220
C190        C  0.67427434  0.58629941  0.64783246     0.03310
H191        H  0.71513981  0.58156292  0.60344372     0.08420
H192        H  0.66401542  0.59387931  0.66428917     0.07250
N193        N  0.86332084  0.93045748  0.86381440    -0.27140
N194        N  0.87896774  0.94790135  0.85767733    -0.35000
C195        C  0.88073458  0.96478302  0.87813511     0.01200
C196        C  0.86657135  0.95693601  0.89914960     0.07230
C197        C  0.85529990  0.93540932  0.88892550    -0.05870
H198        H  0.89266238  0.98056880  0.87798622     0.07890
H199        H  0.84324261  0.92325130  0.89962790     0.09090
Cu200      Cu  0.90322800  0.94351863  0.82737625     0.44170
Cu201      Cu  0.85537783  0.89980582  0.83816034     0.41990
Cu202      Cu  0.89820108  0.88910673  0.78499079     0.43880
N203        N  0.93101006  0.92760493  0.80720862    -0.34530
N204        N  0.92918299  0.90706639  0.79153822    -0.28780
C205        C  0.95022137  0.89905946  0.78423701    -0.04880
C206        C  0.96603853  0.91515852  0.79630893     0.07340
C207        C  0.95328327  0.93322550  0.81044953     0.01130
H208        H  0.95376397  0.88205679  0.77220267     0.08780
H209        H  0.95969605  0.94878858  0.82289186     0.07860
N210        N  0.86717728  0.87021022  0.78717304    -0.35970
N211        N  0.85187338  0.87320289  0.80674372    -0.28150
C212        C  0.83480681  0.85613788  0.80291063    -0.03390
C213        C  0.83989562  0.84161904  0.78011778     0.05220
C214        C  0.86027826  0.85138926  0.77042401     0.03310
H215        H  0.82016398  0.85392136  0.81616722     0.08420
H216        H  0.86966080  0.84511887  0.75269561     0.07250
N217        N  0.17066496  0.93365513  0.85689720    -0.27140
N218        N  0.15129884  0.94684745  0.85705702    -0.35000
C219        C  0.14978666  0.96027278  0.88024605     0.01200
C220        C  0.16887509  0.95491642  0.89567509     0.07230
C221        C  0.18194083  0.93822608  0.88016823    -0.05870
H222        H  0.13518069  0.97183810  0.88612095     0.07890
H223        H  0.19766211  0.92879115  0.88609848     0.09090
Cu224      Cu  0.12534777  0.94185428  0.82912366     0.44170
Cu225      Cu  0.17904086  0.90762782  0.82655360     0.41990
Cu226      Cu  0.13357184  0.89426886  0.77760892     0.43880
N227        N  0.09894480  0.92761975  0.80562407    -0.34530
N228        N  0.10177973  0.90972283  0.78685371    -0.28780
C229        C  0.08112549  0.90217923  0.77781163    -0.04880
C230        C  0.06451264  0.91628074  0.79139311     0.07340
C231        C  0.07647603  0.93200784  0.80901104     0.01130
H232        H  0.07848058  0.88640728  0.76384536     0.08780
H233        H  0.06929328  0.94480639  0.82413732     0.07860
N234        N  0.16597856  0.87805763  0.77616609    -0.35970
N235        N  0.18215422  0.88220713  0.79430785    -0.28150
C236        C  0.19968887  0.86601066  0.78951120    -0.03390
C237        C  0.19451551  0.85123946  0.76696085     0.05220
C238        C  0.17293560  0.85935076  0.75920280     0.03310
H239        H  0.21414406  0.86383592  0.80287102     0.08420
H240        H  0.16247830  0.85117164  0.74332869     0.07250
N241        N  0.86158391  0.01301520  0.04947097    -0.27140
N242        N  0.88027880  0.99873850  0.05025478    -0.35000
C243        C  0.88132238  0.98397944  0.02806640     0.01200
C244        C  0.86276540  0.98951094  0.01173423     0.07230
C245        C  0.85051267  0.00813334  0.02603849    -0.05870
H246        H  0.89600816  0.97231341  0.02265656     0.07890
H247        H  0.83611021  0.01924602  0.01885675     0.09090
Cu248      Cu  0.90759351  0.00547528  0.07551558     0.44170
Cu249      Cu  0.85491349  0.04060668  0.07923958     0.41990
Cu250      Cu  0.90248725  0.04854309  0.12933887     0.43880
N251        N  0.93556841  0.01763378  0.09736992    -0.34530
N252        N  0.93374584  0.03264156  0.11877601    -0.28780
C253        C  0.95481079  0.03741964  0.12848521    -0.04880
C254        C  0.97083811  0.02485803  0.11218660     0.07340
C255        C  0.95774460  0.01305507  0.09227872     0.01130
H256        H  0.95820574  0.04980817  0.14564187     0.08780
H257        H  0.96357869  0.00281319  0.07459778     0.07860
N258        N  0.87135969  0.06767424  0.13026170    -0.35970
N259        N  0.85465152  0.06546462  0.11252768    -0.28150
C260        C  0.83830201  0.08269726  0.11885040    -0.03390
C261        C  0.84482235  0.09690933  0.14174461     0.05220
C262        C  0.86609010  0.08626387  0.14806807     0.03310
H263        H  0.82308832  0.08493342  0.10675551     0.08420
H264        H  0.87790155  0.09128921  0.16370296     0.07250
N265        N  0.17566032  0.01874365  0.04143646    -0.27140
N266        N  0.15373523  0.01691427  0.03555047    -0.35000
C267        C  0.15131171  0.00401744  0.01228016     0.01200
C268        C  0.17272179  0.99714966  0.00264575     0.07230
C269        C  0.18788505  0.00675257  0.02188398    -0.05870
H270        H  0.13498085  0.99989792  0.00298014     0.07890
H271        H  0.20626075  0.00500970  0.02213749     0.09090
Cu272      Cu  0.12756804  0.03023148  0.05974107     0.44170
Cu273      Cu  0.18640373  0.03887948  0.07551801     0.41990
Cu274      Cu  0.13947821  0.05606001  0.12417715     0.43880
N275        N  0.10240972  0.03754072  0.08793355    -0.34530
N276        N  0.10653804  0.04594308  0.11265506    -0.28780
C277        C  0.08667054  0.04675732  0.12661361    -0.04880
C278        C  0.06918918  0.03870244  0.10951887     0.07340
C279        C  0.08000032  0.03291755  0.08529243     0.01130
H280        H  0.08539800  0.05196970  0.14772750     0.08780
H281        H  0.07215839  0.02533844  0.06712876     0.07860
N282        N  0.17250286  0.07092739  0.12464729    -0.35970
N283        N  0.18908170  0.06511175  0.10728236    -0.28150
C284        C  0.20683185  0.08114400  0.11145045    -0.03390
C285        C  0.20107365  0.09779087  0.13221782     0.05220
C286        C  0.17936569  0.09069841  0.14026781     0.03310
H287        H  0.22228541  0.08150602  0.09933641     0.08420
H288        H  0.16879110  0.10021517  0.15527652     0.07250
N289        N  0.85983545  0.51248733  0.86583750    -0.27140
N290        N  0.87993704  0.50081702  0.86645550    -0.35000
C291        C  0.88186328  0.48756737  0.88970787     0.01200
C292        C  0.86218159  0.49132000  0.90470007     0.07230
C293        C  0.84845349  0.50708610  0.88895505    -0.05870
H294        H  0.89714874  0.47750471  0.89609130     0.07890
H295        H  0.83214228  0.51537655  0.89464295     0.09090
Cu296      Cu  0.90577689  0.50744330  0.83874161     0.44170
Cu297      Cu  0.85078297  0.53777220  0.83491681     0.41990
Cu298      Cu  0.89663272  0.55303330  0.78565182     0.43880
N299        N  0.93153605  0.52018291  0.81337428    -0.34530
N300        N  0.92843272  0.53694719  0.79357002    -0.28780
C301        C  0.94884752  0.54236567  0.78217247    -0.04880
C302        C  0.96550900  0.52804061  0.79534142     0.07340
C303        C  0.95387783  0.51459838  0.81529332     0.01130
H304        H  0.95146089  0.55618128  0.76601143     0.08780
H305        H  0.96112879  0.50282806  0.83115212     0.07860
N306        N  0.86397910  0.56879872  0.78509665    -0.35970
N307        N  0.84755726  0.56353781  0.80278983    -0.28150
C308        C  0.82957210  0.57906697  0.79788303    -0.03390
C309        C  0.83482816  0.59461418  0.77592540     0.05220
C310        C  0.85682918  0.58774007  0.76855089     0.03310
H311        H  0.81448955  0.58014586  0.81057100     0.08420
H312        H  0.86730746  0.59676015  0.75311793     0.07250
N313        N  0.17138045  0.51541662  0.86063410    -0.27140
N314        N  0.15081770  0.50502456  0.86307454    -0.35000
C315        C  0.14953223  0.49222645  0.88668036     0.01200
C316        C  0.17012400  0.49491976  0.89994549     0.07230
C317        C  0.18369722  0.50960277  0.88286470    -0.05870
H318        H  0.13419677  0.48315494  0.89447078     0.07890
H319        H  0.20067419  0.51685136  0.88702371     0.09090
Cu320      Cu  0.12378590  0.51230097  0.83722778     0.44170
Cu321      Cu  0.18030802  0.53968258  0.82873577     0.41990
Cu322      Cu  0.13322206  0.55503939  0.78208497     0.43880
N323        N  0.09771309  0.52556246  0.81262308    -0.34530
N324        N  0.10111714  0.54124570  0.79192522    -0.28780
C325        C  0.08085909  0.54694564  0.78047824    -0.04880
C326        C  0.06382353  0.53449121  0.79504958     0.07340
C327        C  0.07522264  0.52092633  0.81506652     0.01130
H328        H  0.07892393  0.55888605  0.76270023     0.08780
H329        H  0.06764191  0.50879600  0.83052227     0.07860
N330        N  0.16579039  0.57031140  0.77949535    -0.35970
N331        N  0.18280744  0.56514148  0.79625931    -0.28150
C332        C  0.20058470  0.58060175  0.79012157    -0.03390
C333        C  0.19449756  0.59591379  0.76829997     0.05220
C334        C  0.17225594  0.58909452  0.76239344     0.03310
H335        H  0.21637303  0.58146987  0.80145739     0.08420
H336        H  0.16094376  0.59838196  0.74809722     0.07250
N337        N  0.85883881  0.43230909  0.05381615    -0.27140
N338        N  0.87901274  0.44357413  0.05225007    -0.35000
C339        C  0.88035182  0.45689265  0.02905885     0.01200
C340        C  0.85996858  0.45434577  0.01493420     0.07230
C341        C  0.84658461  0.43868067  0.03167925    -0.05870
H342        H  0.89565901  0.46676239  0.02235340     0.07890
H343        H  0.82947181  0.43181205  0.02827307     0.09090
Cu344      Cu  0.90535044  0.43812235  0.07936859     0.44170
Cu345      Cu  0.85105851  0.40604218  0.08444540     0.41990
Cu346      Cu  0.90220563  0.38362754  0.12228457     0.43880
N347        N  0.93340614  0.42376239  0.09956535    -0.34530
N348        N  0.93281307  0.40235137  0.11401256    -0.28780
C349        C  0.95438768  0.39550454  0.12027363    -0.04880
C350        C  0.96926143  0.41342572  0.10891290     0.07340
C351        C  0.95517926  0.43141736  0.09659340     0.01130
H352        H  0.95897823  0.37817558  0.13123402     0.08780
H353        H  0.96014897  0.44848617  0.08558361     0.07860
N354        N  0.86914254  0.36999253  0.12801150    -0.35970
N355        N  0.85080388  0.37795538  0.11470616    -0.28150
C356        C  0.83269250  0.36385567  0.12280574    -0.03390
C357        C  0.83990105  0.34655904  0.14238679     0.05220
C358        C  0.86312339  0.35077525  0.14487593     0.03310
H359        H  0.81568300  0.36545792  0.11439958     0.08420
H360        H  0.87507596  0.33974183  0.15690529     0.07250
N361        N  0.17643517  0.43468270  0.04770247    -0.27140
N362        N  0.15584328  0.44508406  0.04643964    -0.35000
C363        C  0.15411760  0.45868788  0.02342712     0.01200
C364        C  0.17455726  0.45693719  0.00918723     0.07230
C365        C  0.18847022  0.44176163  0.02557514    -0.05870
H366        H  0.13862483  0.46824352  0.01688150     0.07890
H367        H  0.20583267  0.43574456  0.02185283     0.09090
Cu368      Cu  0.12967980  0.43823635  0.07390004     0.44170
Cu369      Cu  0.18568255  0.40841316  0.07757151     0.41990
Cu370      Cu  0.13704705  0.38541821  0.11856663     0.43880
N371        N  0.10330862  0.42349567  0.09730376    -0.34530
N372        N  0.10565571  0.40292411  0.11278107    -0.28780
C373        C  0.08489887  0.39527241  0.12150434    -0.04880
C374        C  0.06857945  0.41220785  0.11138135     0.07340
C375        C  0.08108432  0.42981846  0.09613098     0.01130
H376        H  0.08207372  0.37764223  0.13260453     0.08780
H377        H  0.07434199  0.44520920  0.08365696     0.07860
N378        N  0.17005386  0.37127096  0.12116000    -0.35970
N379        N  0.18769029  0.37938905  0.10658799    -0.28150
C380        C  0.20606352  0.36481473  0.11262900    -0.03390
C381        C  0.19966471  0.34704241  0.13218055     0.05220
C382        C  0.17672820  0.35149711  0.13683649     0.03310
H383        H  0.22261294  0.36646752  0.10290863     0.08420
H384        H  0.16551606  0.34063355  0.15007601     0.07250
O385        O  0.26843011  0.75076976  0.66563803    -0.72790
O386        O  0.23344906  0.69487976  0.70350793    -0.73770
O387        O  0.23197996  0.74992747  0.70297243    -0.62390
O388        O  0.26994160  0.69566168  0.66604338    -0.70800
O389        O  0.29400256  0.69576885  0.70072623    -0.70360
O390        O  0.25720994  0.75168262  0.73641807    -0.61610
O391        O  0.25749478  0.69646360  0.73808189    -0.74120
O392        O  0.29363787  0.75088482  0.69911819    -0.72900
Cu393      Cu  0.25006340  0.72275746  0.68338259     1.04560
Cu394      Cu  0.27642978  0.72373361  0.71979719     1.04330
C395        C  0.28634883  0.76001437  0.67668027     0.93400
C396        C  0.24012870  0.68647828  0.72651940     0.92540
C397        C  0.23900702  0.75992427  0.72506638     0.84690
C398        C  0.28760455  0.68664856  0.67794779     0.90960
O399        O  0.73466110  0.74864150  0.70795390    -0.72790
O400        O  0.77061468  0.69342016  0.74576578    -0.73770
O401        O  0.77071087  0.74873358  0.74533205    -0.62390
O402        O  0.73434412  0.69352360  0.70865881    -0.70800
O403        O  0.75929159  0.69270488  0.67479526    -0.70360
O404        O  0.79562533  0.74851546  0.71125633    -0.61610
O405        O  0.79573509  0.69347389  0.71187501    -0.74120
O406        O  0.75924498  0.74801427  0.67397161    -0.72900
Cu407      Cu  0.75172145  0.72109375  0.72810364     1.04560
Cu408      Cu  0.77833158  0.72066566  0.69177168     1.04330
C409        C  0.74157622  0.75773488  0.68525617     0.93400
C410        C  0.78861283  0.68444492  0.73443357     0.92540
C411        C  0.78851002  0.75780750  0.73373069     0.84690
C412        C  0.74125133  0.68395029  0.68627313     0.90960
O413        O  0.27748475  0.19636376  0.23576568    -0.72790
O414        O  0.24031285  0.24981365  0.19687614    -0.73770
O415        O  0.24165392  0.19463929  0.19812953    -0.62390
O416        O  0.27595302  0.25145619  0.23496844    -0.70800
O417        O  0.30164265  0.25123314  0.20168265    -0.70360
O418        O  0.26646692  0.19508716  0.16395566    -0.61610
O419        O  0.26595657  0.25045465  0.16350853    -0.74120
O420        O  0.30221463  0.19628245  0.20193345    -0.72900
Cu421      Cu  0.25794252  0.22308769  0.21757592     1.04560
Cu422      Cu  0.28493739  0.22329505  0.18157162     1.04330
C423        C  0.29549139  0.18714609  0.22457173     0.93400
C424        C  0.24768133  0.25902496  0.17448124     0.92540
C425        C  0.24903596  0.18533008  0.17581397     0.84690
C426        C  0.29409788  0.26038441  0.22402911     0.90960
O427        O  0.73840027  0.19294089  0.21230464    -0.72790
O428        O  0.77369582  0.24881792  0.17466934    -0.73770
O429        O  0.77448061  0.19369560  0.17426565    -0.62390
O430        O  0.73800839  0.24824300  0.21261505    -0.70800
O431        O  0.76274747  0.24773024  0.24667913    -0.70360
O432        O  0.79949151  0.19420726  0.20763250    -0.61610
O433        O  0.79847140  0.24935675  0.20847751    -0.74120
O434        O  0.76381577  0.19248594  0.24561120    -0.72900
Cu435      Cu  0.75524518  0.22089128  0.19232384     1.04560
Cu436      Cu  0.78200158  0.22094165  0.22826376     1.04330
C437        C  0.74596348  0.18329310  0.23435505     0.93400
C438        C  0.79135525  0.25843072  0.18591521     0.92540
C439        C  0.79256961  0.18473545  0.18519004     0.84690
C440        C  0.74502032  0.25706941  0.23527810     0.90960
C441        C  0.20478382  0.30023000  0.13684553    -0.05630
C442        C  0.21303042  0.32510922  0.14264475     0.00300
C443        C  0.23310457  0.32803225  0.15845601    -0.08270
C444        C  0.24436123  0.30570903  0.16749020    -0.05650
C445        C  0.23579247  0.28100803  0.16215973     0.00280
C446        C  0.21590306  0.27798525  0.14642790    -0.08180
C447        C  0.20680988  0.25136710  0.13963065     0.62200
H448        H  0.18946770  0.29837872  0.12470390     0.12890
H449        H  0.25967838  0.30760399  0.17966286     0.12900
C450        C  0.24300452  0.35369562  0.16762099     0.62430
F451        F  0.18760178  0.25259560  0.12334575    -0.22740
F452        F  0.20100600  0.23847154  0.16320488    -0.20070
F453        F  0.22346859  0.23747724  0.12600780    -0.19740
F454        F  0.24457524  0.35378932  0.19559387    -0.19800
F455        F  0.23006522  0.37480629  0.16017405    -0.20120
F456        F  0.26471611  0.35652287  0.15680379    -0.22790
C457        C  0.00574794  0.40542895  0.13290359    -0.05630
C458        C  0.99468713  0.41230606  0.10871389     0.00300
C459        C  0.00803927  0.41677839  0.08506427    -0.08270
C460        C  0.03195455  0.41583782  0.08713820    -0.05650
C461        C  0.04314118  0.41000431  0.11151848     0.00280
C462        C  0.02979656  0.40400969  0.13481511    -0.08180
C463        C  0.04046195  0.39626416  0.16163930     0.62200
H464        H  0.99527332  0.40128070  0.15051049     0.12890
H465        H  0.04223244  0.41985135  0.06934428     0.12900
C466        C  0.99769433  0.42230861  0.05740945     0.62430
F467        F  0.02452483  0.39600523  0.18245970    -0.22740
F468        F  0.05753288  0.41342559  0.16871557    -0.20070
F469        F  0.04941301  0.37165778  0.15952391    -0.19740
F470        F  0.99129711  0.44794468  0.05591466    -0.19800
F471        F  0.97898218  0.40662217  0.05276657    -0.20120
F472        F  0.01324501  0.41773227  0.03672716    -0.22790
C473        C  0.81698387  0.30707656  0.13603428    -0.05630
C474        C  0.82673671  0.32485348  0.15400642     0.00300
C475        C  0.82396863  0.32142890  0.18226387    -0.08270
C476        C  0.81245996  0.29932806  0.19161869    -0.05650
C477        C  0.80313721  0.28105266  0.17371923     0.00280
C478        C  0.80504173  0.28518560  0.14531849    -0.08180
C479        C  0.79503801  0.26654345  0.12475750     0.62200
H480        H  0.81904553  0.31041672  0.11449698     0.12890
H481        H  0.81037883  0.29633043  0.21320648     0.12900
C482        C  0.83227147  0.34148727  0.20241532     0.62430
F483        F  0.80145660  0.27272427  0.09851244    -0.22740
F484        F  0.77141430  0.26732566  0.12602178    -0.20070
F485        F  0.80257050  0.24172857  0.13004519    -0.19740
F486        F  0.82374961  0.36550902  0.19547140    -0.19800
F487        F  0.85587648  0.34235497  0.20239962    -0.20120
F488        F  0.82509510  0.33599852  0.22856098    -0.22790
C489        C  0.18702421  0.46498604  0.93335934    -0.05630
C490        C  0.17466036  0.48761099  0.92830750     0.00300
C491        C  0.16544579  0.50186029  0.95015031    -0.08270
C492        C  0.16772350  0.49199083  0.97648612    -0.05650
C493        C  0.17845175  0.46817580  0.98166789     0.00280
C494        C  0.18921712  0.45485244  0.95978653    -0.08180
C495        C  0.20247090  0.42991550  0.96366440     0.62200
H496        H  0.19430065  0.45486015  0.91617118     0.12890
H497        H  0.16012489  0.50238596  0.99329078     0.12900
C498        C  0.15277055  0.52709634  0.94556717     0.62430
F499        F  0.20931606  0.41928137  0.93920109    -0.22740
F500        F  0.18907956  0.41182084  0.97684092    -0.20070
F501        F  0.22199116  0.43482363  0.97849826    -0.19740
F502        F  0.13290249  0.52257805  0.93123552    -0.19800
F503        F  0.16648708  0.54394399  0.93108288    -0.20120
F504        F  0.14683022  0.53893199  0.96973696    -0.22790
C505        C  0.21375625  0.63772971  0.77559820    -0.05630
C506        C  0.20697615  0.61840868  0.75740912     0.00300
C507        C  0.21173707  0.62117135  0.72944756    -0.08270
C508        C  0.22189297  0.64415196  0.72041515    -0.05650
C509        C  0.22856728  0.66369658  0.73846811     0.00280
C510        C  0.22478746  0.66035841  0.76668217    -0.08180
C511        C  0.23183805  0.68058331  0.78729741     0.62200
H512        H  0.21017848  0.63495876  0.79695008     0.12890
H513        H  0.22532773  0.64671877  0.69900048     0.12900
C514        C  0.20729215  0.59948901  0.70939943     0.62430
F515        F  0.22364017  0.67492037  0.81297702    -0.22740
F516        F  0.22329432  0.70444505  0.77992824    -0.20070
F517        F  0.25542252  0.68179978  0.78870888    -0.19740
F518        F  0.18406973  0.59596199  0.70606886    -0.19800
F519        F  0.21698671  0.57684002  0.71881853    -0.20120
F520        F  0.21668968  0.60470879  0.68418982    -0.22790
C521        C  0.84489390  0.46308096  0.93959989    -0.05630
C522        C  0.85887723  0.48419494  0.93339978     0.00300
C523        C  0.87030039  0.49739363  0.95438135    -0.08270
C524        C  0.86816117  0.48811358  0.98097128    -0.05650
C525        C  0.85589552  0.46546020  0.98726084     0.00280
C526        C  0.84309946  0.45327903  0.96625042    -0.08180
C527        C  0.82781863  0.43007765  0.97121073     0.62200
H528        H  0.83592497  0.45384067  0.92307046     0.12890
H529        H  0.87701215  0.49810751  0.99706682     0.12900
C530        C  0.88516784  0.52085292  0.94864803     0.62430
F531        F  0.81854824  0.42062827  0.94740694    -0.22740
F532        F  0.80980061  0.43720153  0.98780219    -0.20070
F533        F  0.84018039  0.41028855  0.98297033    -0.19740
F534        F  0.87271085  0.53916650  0.93461255    -0.19800
F535        F  0.90397831  0.51367703  0.93336701    -0.20120
F536        F  0.89307364  0.53216620  0.97223790    -0.22790
C537        C  0.00101455  0.55374478  0.79032351    -0.05630
C538        C  0.99063871  0.52932317  0.79152761     0.00300
C539        C  0.00445821  0.50686499  0.79010791    -0.08270
C540        C  0.02832202  0.50969505  0.79005953    -0.05650
C541        C  0.03878461  0.53402857  0.79051395     0.00280
C542        C  0.02499920  0.55658912  0.78981005    -0.08180
C543        C  0.03533147  0.58348849  0.78961023     0.62200
H544        H  0.99012826  0.57066292  0.79078377     0.12890
H545        H  0.03910567  0.49266947  0.79040086     0.12900
C546        C  0.99442009  0.47986107  0.78874043     0.62430
F547        F  0.01878927  0.60248456  0.79217740    -0.22740
F548        F  0.04666641  0.58758466  0.76538883    -0.20070
F549        F  0.05048021  0.58620961  0.81088611    -0.19740
F550        F  0.97556996  0.47943457  0.77187374    -0.19800
F551        F  0.98812421  0.47180631  0.81437970    -0.20120
F552        F  0.01016092  0.46234372  0.77858484    -0.22790
C553        C  0.83308418  0.64147235  0.76731836    -0.05630
C554        C  0.82208103  0.61740153  0.76611748     0.00300
C555        C  0.79990772  0.61557071  0.75477756    -0.08270
C556        C  0.78930119  0.63824863  0.74542923    -0.05650
C557        C  0.80040600  0.66219362  0.74650131     0.00280
C558        C  0.82257810  0.66404379  0.75757911    -0.08180
C559        C  0.83479360  0.68980605  0.75946612     0.62200
H560        H  0.85007412  0.64241444  0.77594849     0.12890
H561        H  0.77240123  0.63740462  0.73651905     0.12900
C562        C  0.78796301  0.58976199  0.75132924     0.62430
F563        F  0.85570457  0.68760433  0.77235464    -0.22740
F564        F  0.82145469  0.70702588  0.77398851    -0.20070
F565        F  0.83862997  0.69955134  0.73376875    -0.19740
F566        F  0.78282827  0.57936576  0.77638981    -0.19800
F567        F  0.80202907  0.57293874  0.73725443    -0.20120
F568        F  0.76772335  0.59216151  0.73703384    -0.22790
C569        C  0.22545746  0.16528317  0.14002170    -0.05630
C570        C  0.23767804  0.16250722  0.16422004     0.00300
C571        C  0.23878987  0.13808789  0.17714592    -0.08270
C572        C  0.22670395  0.11730128  0.16585997    -0.05650
C573        C  0.21412363  0.12019905  0.14200396     0.00280
C574        C  0.21351764  0.14436634  0.12861809    -0.08180
C575        C  0.20001538  0.14799158  0.10269406     0.62200
H576        H  0.22506008  0.18406327  0.13039082     0.12890
H577        H  0.22698604  0.09853204  0.17554579     0.12900
C578        C  0.25344290  0.13378497  0.20208452     0.62430
F579        F  0.20119607  0.17313911  0.09328972    -0.22740
F580        F  0.17726449  0.14206259  0.10726053    -0.20070
F581        F  0.20861755  0.13190873  0.08275743    -0.19740
F582        F  0.24572651  0.14897042  0.22325031    -0.19800
F583        F  0.27584619  0.14010740  0.19607629    -0.20120
F584        F  0.25301352  0.10831858  0.21059394    -0.22790
C585        C  0.00589784  0.04907361  0.12530681    -0.05630
C586        C  0.99635541  0.02649163  0.11409220     0.00300
C587        C  0.01142462  0.00664610  0.10501596    -0.08270
C588        C  0.03506605  0.01139060  0.10504502    -0.05650
C589        C  0.04445514  0.03439652  0.11497003     0.00280
C590        C  0.02972490  0.05326452  0.12633153    -0.08180
C591        C  0.03884233  0.07792543  0.13893227     0.62200
H592        H  0.99449550  0.06392023  0.13274957     0.12890
H593        H  0.04656510  0.99701329  0.09667400     0.12900
C594        C  0.00349075  0.98049617  0.09472469     0.62430
F595        F  0.02142957  0.09479580  0.14596386    -0.22740
F596        F  0.05316293  0.09052744  0.12092214    -0.20070
F597        F  0.05071053  0.07198657  0.16228188    -0.19740
F598        F  0.99844871  0.98221535  0.06743145    -0.19800
F599        F  0.98463776  0.97184730  0.10906023    -0.20120
F600        F  0.02044038  0.96203600  0.09774362    -0.22790
C601        C  0.81058767  0.12595592  0.14270419    -0.05630
C602        C  0.83191829  0.11942705  0.15428693     0.00300
C603        C  0.83957602  0.13467915  0.17671708    -0.08270
C604        C  0.82653520  0.15624752  0.18469104    -0.05650
C605        C  0.80551430  0.16269764  0.17284578     0.00280
C606        C  0.79708795  0.14684023  0.15165293    -0.08180
C607        C  0.77383617  0.15123827  0.13857133     0.62200
H608        H  0.80400623  0.11439582  0.12642667     0.12890
H609        H  0.83275498  0.16836469  0.20089923     0.12900
C610        C  0.86091523  0.12889738  0.19317936     0.62430
F611        F  0.76880141  0.13273754  0.11924276    -0.22740
F612        F  0.77349136  0.17501745  0.12581987    -0.20070
F613        F  0.75681106  0.15017162  0.15808799    -0.19740
F614        F  0.88016822  0.13280884  0.17736718    -0.19800
F615        F  0.85995890  0.10389388  0.20297298    -0.20120
F616        F  0.86300114  0.14482830  0.21558182    -0.22790
C617        C  0.19036354  0.97897732  0.93063787    -0.05630
C618        C  0.17242467  0.96212267  0.92427318     0.00300
C619        C  0.15780012  0.95305500  0.94506019    -0.08270
C620        C  0.16023848  0.96331265  0.97116047    -0.05650
C621        C  0.17652753  0.98242883  0.97709695     0.00280
C622        C  0.19284068  0.98932950  0.95692914    -0.08180
C623        C  0.21241256  0.00773467  0.96261640     0.62200
H624        H  0.20189119  0.98471744  0.91450507     0.12890
H625        H  0.14843923  0.95742787  0.98695772     0.12900
C626        C  0.13939652  0.93297485  0.93975361     0.62430
F627        F  0.22518466  0.01285590  0.93955692    -0.22740
F628        F  0.22691319  0.99677548  0.98146048    -0.20070
F629        F  0.20409385  0.03096381  0.97231586    -0.19740
F630        F  0.14866258  0.91220228  0.92593891    -0.19800
F631        F  0.12199171  0.94366299  0.92456117    -0.20120
F632        F  0.12991417  0.92375875  0.96361226    -0.22790
C633        C  0.19360243  0.80568388  0.75241542    -0.05630
C634        C  0.20666908  0.82805946  0.75678363     0.00300
C635        C  0.23034151  0.82790269  0.75039229    -0.08270
C636        C  0.24024892  0.80476896  0.74116418    -0.05650
C637        C  0.22711007  0.78255538  0.73656078     0.00280
C638        C  0.20333436  0.78296898  0.74190304    -0.08180
C639        C  0.18835165  0.75953911  0.73691153     0.62200
H640        H  0.17551012  0.80620479  0.75714372     0.12890
H641        H  0.25837842  0.80406618  0.73658162     0.12900
C642        C  0.24493085  0.85214586  0.75170085     0.62430
F643        F  0.16626846  0.76322162  0.74638455    -0.22740
F644        F  0.19737971  0.73829381  0.75001289    -0.20070
F645        F  0.18717746  0.75457913  0.70943444    -0.19740
F646        F  0.24908520  0.85866988  0.77834567    -0.19800
F647        F  0.23388233  0.87234665  0.73887494    -0.20120
F648        F  0.26587223  0.84870759  0.73898786    -0.22790
C649        C  0.84470829  0.96543004  0.94164663    -0.05630
C650        C  0.86573924  0.96675815  0.92761015     0.00300
C651        C  0.88537394  0.97594462  0.94167254    -0.08270
C652        C  0.88263391  0.98523463  0.96812958    -0.05650
C653        C  0.86193914  0.98323399  0.98235663     0.00280
C654        C  0.84257545  0.97289560  0.96909161    -0.08180
C655        C  0.82012338  0.96880379  0.98399151     0.62200
H656        H  0.82991581  0.95807358  0.93101862     0.12890
H657        H  0.89722878  0.99352973  0.97840480     0.12900
C658        C  0.90966203  0.97482570  0.93045948     0.62430
F659        F  0.80439088  0.95569142  0.96824167    -0.22740
F660        F  0.81071468  0.99236055  0.99093471    -0.20070
F661        F  0.82381891  0.95446803  0.00722912    -0.19740
F662        F  0.91362084  0.99589338  0.91393175    -0.19800
F663        F  0.91335053  0.95211914  0.91637367    -0.20120
F664        F  0.92571212  0.97549927  0.95104468    -0.22790
C665        C  0.00199714  0.91678545  0.76998674    -0.05630
C666        C  0.99121239  0.91295194  0.79507903     0.00300
C667        C  0.00451481  0.90718720  0.81822890    -0.08270
C668        C  0.02847529  0.90768713  0.81585942    -0.05650
C669        C  0.03936301  0.91286447  0.79105545     0.00280
C670        C  0.02600848  0.91673729  0.76747584    -0.08180
C671        C  0.03694719  0.92163142  0.74002165     0.62200
H672        H  0.99138489  0.92039856  0.75243797     0.12890
H673        H  0.03899096  0.90433160  0.83354996     0.12900
C674        C  0.99352005  0.89990126  0.84509858     0.62430
F675        F  0.02081380  0.92735057  0.72043771    -0.22740
F676        F  0.04868815  0.89986689  0.73169632    -0.20070
F677        F  0.05192671  0.94221891  0.74165406    -0.19740
F678        F  0.97805746  0.88005444  0.84117871    -0.19800
F679        F  0.98226972  0.92093862  0.85601079    -0.20120
F680        F  0.00956725  0.89159127  0.86375425    -0.22790
C681        C  0.80449381  0.82417459  0.76009626    -0.05630
C682        C  0.82686285  0.81963187  0.76907680     0.00300
C683        C  0.83629285  0.79444307  0.76736930    -0.08270
C684        C  0.82313464  0.77471633  0.75565486    -0.05650
C685        C  0.80094926  0.77935910  0.74629662     0.00280
C686        C  0.79132259  0.80438434  0.74843912    -0.08180
C687        C  0.76771312  0.81035142  0.73730286     0.62200
H688        H  0.79763546  0.84354724  0.76173661     0.12890
H689        H  0.83008785  0.75542178  0.75365949     0.12900
C690        C  0.85983210  0.78815107  0.77853110     0.62430
F691        F  0.76201782  0.83613622  0.74036185    -0.22740
F692        F  0.75139062  0.79581762  0.75069734    -0.20070
F693        F  0.76717985  0.80458912  0.70996476    -0.19740
F694        F  0.86169460  0.79727248  0.80477746    -0.19800
F695        F  0.87652196  0.79937806  0.76256273    -0.20120
F696        F  0.86384604  0.76181168  0.77903129    -0.22790
C697        C  0.69512820  0.63753913  0.66185993    -0.05630
C698        C  0.70841240  0.61738098  0.65088365     0.00300
C699        C  0.73269030  0.61932609  0.65196785    -0.08270
C700        C  0.74245732  0.64184497  0.66293598    -0.05650
C701        C  0.72908774  0.66167522  0.67416136     0.00280
C702        C  0.70495142  0.65934319  0.67410626    -0.08180
C703        C  0.68946227  0.67969181  0.68669190     0.62200
H704        H  0.67670250  0.63609963  0.66094237     0.12890
H705        H  0.76089512  0.64387321  0.66340036     0.12900
C706        C  0.74866782  0.59798059  0.64245845     0.62430
F707        F  0.66660327  0.67510930  0.68124921    -0.22740
F708        F  0.69490779  0.70381979  0.67654527    -0.20070
F709        F  0.69207254  0.67962455  0.71453431    -0.19740
F710        F  0.75065813  0.59873551  0.61457068    -0.19800
F711        F  0.74065385  0.57409259  0.65063272    -0.20120
F712        F  0.77039524  0.60084892  0.65315758    -0.22790
C713        C  0.50241254  0.53433265  0.63632257    -0.05630
C714        C  0.49178206  0.53250804  0.61096437     0.00300
C715        C  0.50530316  0.53317916  0.58710602    -0.08270
C716        C  0.52923381  0.53348424  0.58965259    -0.05650
C717        C  0.54004965  0.53385040  0.61504399     0.00280
C718        C  0.52641899  0.53513952  0.63890284    -0.08180
C719        C  0.53684168  0.53691750  0.66697703     0.62200
H720        H  0.49163722  0.53480363  0.65421368     0.12890
H721        H  0.53980281  0.53311942  0.57159075     0.12900
C722        C  0.49469255  0.53423180  0.55904375     0.62430
F723        F  0.52052406  0.53413112  0.68716732    -0.22740
F724        F  0.54690180  0.56082370  0.67027137    -0.20070
F725        F  0.55302987  0.51773746  0.67046851    -0.19740
F726        F  0.47809489  0.55326373  0.55816028    -0.19800
F727        F  0.48498431  0.51070256  0.55276737    -0.20120
F728        F  0.51080210  0.53982042  0.53926268    -0.22790
C729        C  0.30874790  0.66927345  0.63860367    -0.05630
C730        C  0.30069493  0.66551909  0.66511145     0.00300
C731        C  0.30474453  0.64167391  0.67840476    -0.08270
C732        C  0.31707841  0.62238710  0.66459970    -0.05650
C733        C  0.32522776  0.62623232  0.63817571     0.00280
C734        C  0.32132803  0.65007150  0.62496194    -0.08180
C735        C  0.33118481  0.65550239  0.59705346     0.62200
H736        H  0.30542900  0.68762860  0.62884556     0.12890
H737        H  0.32056468  0.60407637  0.67436893     0.12900
C738        C  0.29547496  0.63627804  0.70662606     0.62430
F739        F  0.32709938  0.68065334  0.58889785    -0.22740
F740        F  0.32141983  0.63915357  0.57825166    -0.20070
F741        F  0.35460767  0.65167437  0.59733597    -0.19740
F742        F  0.27214095  0.64039384  0.70703797    -0.19800
F743        F  0.30581929  0.65237799  0.72524093    -0.20120
F744        F  0.29942098  0.61103574  0.71458662    -0.22790
C745        C  0.68869584  0.44993838  0.45078337    -0.05630
C746        C  0.67633861  0.46430559  0.43156233     0.00300
C747        C  0.66587891  0.48787187  0.43956943    -0.08270
C748        C  0.66519785  0.49414217  0.46717656    -0.05650
C749        C  0.67616857  0.47886178  0.48654453     0.00280
C750        C  0.68899371  0.45711138  0.47832474    -0.08180
C751        C  0.70220188  0.44126928  0.49882176     0.62200
H752        H  0.69700380  0.43225386  0.44441556     0.12890
H753        H  0.65597310  0.51122045  0.47375216     0.12900
C754        C  0.65525705  0.50700078  0.41996407     0.62430
F755        F  0.71388917  0.42105631  0.48671471    -0.22740
F756        F  0.68730672  0.43113548  0.51787376    -0.20070
F757        F  0.71797063  0.45685714  0.51173581    -0.19740
F758        F  0.63168651  0.50512351  0.42130276    -0.19800
F759        F  0.66240162  0.50310921  0.39354161    -0.20120
F760        F  0.66154187  0.53185260  0.42704357    -0.22790
C761        C  0.71266239  0.30237787  0.28223320    -0.05630
C762        C  0.71282281  0.32503514  0.26664953     0.00300
C763        C  0.72400949  0.32544860  0.24124000    -0.08270
C764        C  0.73411232  0.30259306  0.23168979    -0.05650
C765        C  0.73366956  0.27980623  0.24703767     0.00280
C766        C  0.72305558  0.27955299  0.27282039    -0.08180
C767        C  0.72209223  0.25513405  0.28976034     0.62200
H768        H  0.70396247  0.30263693  0.30164709     0.12890
H769        H  0.74269760  0.30236831  0.21219187     0.12900
C770        C  0.72564445  0.35007523  0.22468848     0.62430
F771        F  0.70946618  0.25861384  0.31326599    -0.22740
F772        F  0.74396582  0.24778700  0.29701631    -0.20070
F773        F  0.71204443  0.23552249  0.27497155    -0.19740
F774        F  0.73597927  0.36914479  0.23996672    -0.19800
F775        F  0.70401368  0.35817486  0.21730501    -0.20120
F776        F  0.73844426  0.34663131  0.20129937    -0.22790
C777        C  0.38581529  0.46253954  0.43867950    -0.05630
C778        C  0.36520429  0.46439804  0.42442229     0.00300
C779        C  0.34561742  0.47436360  0.43776461    -0.08270
C780        C  0.34741619  0.48147931  0.46531065    -0.05650
C781        C  0.36822521  0.47989684  0.47959218     0.00280
C782        C  0.38807240  0.47089723  0.46558445    -0.08180
C783        C  0.41199727  0.47072960  0.47767267     0.62200
H784        H  0.40055962  0.45460447  0.42826306     0.12890
H785        H  0.33245734  0.48863085  0.47590346     0.12900
C786        C  0.32322791  0.47850231  0.42287513     0.62430
F787        F  0.42870067  0.46911335  0.45776545    -0.22740
F788        F  0.41452059  0.44949563  0.49434291    -0.20070
F789        F  0.41608741  0.49323976  0.49190587    -0.19740
F790        F  0.31371456  0.45498419  0.41615173    -0.19800
F791        F  0.32705632  0.49266525  0.39952635    -0.20120
F792        F  0.30748399  0.49183255  0.43855867    -0.22790
C793        C  0.50426730  0.39582156  0.31272063    -0.05630
C794        C  0.49483869  0.41031795  0.29155252     0.00300
C795        C  0.50923383  0.42128543  0.27159055    -0.08270
C796        C  0.53307639  0.41866870  0.27439641    -0.05650
C797        C  0.54254995  0.40538953  0.29643758     0.00280
C798        C  0.52805404  0.39291293  0.31539085    -0.08180
C799        C  0.53768250  0.37635678  0.33806600     0.62200
H800        H  0.49280703  0.38722562  0.32746781     0.12890
H801        H  0.54452164  0.42774371  0.25995889     0.12900
C802        C  0.49929317  0.43610330  0.24789842     0.62430
F803        F  0.52060587  0.36340852  0.35201979    -0.22740
F804        F  0.54935076  0.39157673  0.35637084    -0.20070
F805        F  0.55248552  0.35814257  0.32736162    -0.19740
F806        F  0.48687910  0.45699239  0.25736970    -0.19800
F807        F  0.48500350  0.42012082  0.23322826    -0.20120
F808        F  0.51616693  0.44519265  0.23062326    -0.22790
C809        C  0.33742260  0.30100073  0.26171825    -0.05630
C810        C  0.32780511  0.32573757  0.25901601     0.00300
C811        C  0.30690151  0.32883287  0.24482062    -0.08270
C812        C  0.29610069  0.30673425  0.23447836    -0.05650
C813        C  0.30594608  0.28218390  0.23683465     0.00280
C814        C  0.32680204  0.27904319  0.25075483    -0.08180
C815        C  0.33744821  0.25254336  0.25431313     0.62200
H816        H  0.35342204  0.29903774  0.27254279     0.12890
H817        H  0.28008277  0.30877633  0.22366825     0.12900
C818        C  0.29561358  0.35461525  0.23872859     0.62430
F819        F  0.35724195  0.25352939  0.26960039    -0.22740
F820        F  0.34288648  0.24226150  0.22925616    -0.20070
F821        F  0.32210831  0.23638059  0.26731583    -0.19740
F822        F  0.29295270  0.35706491  0.21099709    -0.19800
F823        F  0.30796936  0.37565839  0.24757855    -0.20120
F824        F  0.27425730  0.35531382  0.25084913    -0.22790
C825        C  0.33628646  0.13081092  0.23930626    -0.05630
C826        C  0.32753772  0.12141008  0.26399840     0.00300
C827        C  0.30781612  0.13352412  0.27523923    -0.08270
C828        C  0.29851140  0.15509713  0.26181896    -0.05650
C829        C  0.30775142  0.16499608  0.23757176     0.00280
C830        C  0.32711349  0.15241836  0.22595357    -0.08180
C831        C  0.33846395  0.16131971  0.19971960     0.62200
H832        H  0.35068333  0.12089621  0.23027456     0.12890
H833        H  0.28343641  0.16424762  0.27019440     0.12900
C834        C  0.29603475  0.12405671  0.30086938     0.62430
F835        F  0.35753100  0.14668183  0.19318267    -0.22740
F836        F  0.34563049  0.18664380  0.20232502    -0.20070
F837        F  0.32326284  0.15917619  0.17841547    -0.19740
F838        F  0.31167373  0.12150570  0.32164829    -0.19800
F839        F  0.28550247  0.10069508  0.29572586    -0.20120
F840        F  0.27923358  0.14096258  0.30970876    -0.22790
C841        C  0.50679815  0.04701460  0.30803617    -0.05630
C842        C  0.49558246  0.03012969  0.29029876     0.00300
C843        C  0.50848523  0.01420977  0.27267953    -0.08270
C844        C  0.53248880  0.01444242  0.27468570    -0.05650
C845        C  0.54363722  0.03026173  0.29349123     0.00280
C846        C  0.53080274  0.04740091  0.30990637    -0.08180
C847        C  0.54249413  0.06589386  0.32927112     0.62200
H848        H  0.49654303  0.05937573  0.32096376     0.12890
H849        H  0.54274013  0.00184211  0.26201187     0.12900
C850        C  0.49685631  0.99743400  0.25165663     0.62430
F851        F  0.52694377  0.08176228  0.34240042    -0.22740
F852        F  0.55760376  0.08138749  0.31505297    -0.20070
F853        F  0.55437448  0.05216610  0.34870158    -0.19740
F854        F  0.48296726  0.01259249  0.23550235    -0.19800
F855        F  0.48368765  0.97883673  0.26433150    -0.20120
F856        F  0.51254600  0.98506015  0.23507149    -0.22790
C857        C  0.73160003  0.11603933  0.25995851    -0.05630
C858        C  0.70819663  0.11873427  0.26563313     0.00300
C859        C  0.69763365  0.14328668  0.26283943    -0.08270
C860        C  0.71073284  0.16396763  0.25281494    -0.05650
C861        C  0.73396186  0.16108218  0.24653670     0.00280
C862        C  0.74476926  0.13684995  0.25035543    -0.08180
C863        C  0.76978801  0.13265736  0.24320809     0.62200
H864        H  0.73940899  0.09725243  0.26269984     0.12890
H865        H  0.70288242  0.18268859  0.24971295     0.12900
C866        C  0.67294152  0.14812442  0.27110674     0.62430
F867        F  0.77647650  0.10727717  0.24706636    -0.22740
F868        F  0.78344483  0.14808361  0.25927944    -0.20070
F869        F  0.77339720  0.13875968  0.21628482    -0.19740
F870        F  0.66861046  0.13736366  0.29626905    -0.19800
F871        F  0.65836580  0.13754816  0.25216981    -0.20120
F872        F  0.66815910  0.17425536  0.27282866    -0.22790
C873        C  0.67101635  0.98486665  0.47816954    -0.05630
C874        C  0.68011509  0.96019589  0.48298960     0.00300
C875        C  0.69045808  0.94640141  0.46132519    -0.08270
C876        C  0.68954770  0.95706288  0.43504510    -0.05650
C877        C  0.67877058  0.98076641  0.43011805     0.00280
C878        C  0.67008799  0.99542339  0.45200141    -0.08180
C879        C  0.65907673  0.02164213  0.44753217     0.62200
H880        H  0.66333681  0.99519753  0.49498343     0.12890
H881        H  0.69630308  0.94643967  0.41789058     0.12900
C882        C  0.70139564  0.92014139  0.46554452     0.62430
F883        F  0.65277980  0.03321321  0.47172156    -0.22740
F884        F  0.63966089  0.01899673  0.43186527    -0.20070
F885        F  0.67434153  0.03781895  0.43445702    -0.19740
F886        F  0.68573372  0.90324671  0.47684221    -0.19800
F887        F  0.71999588  0.92257441  0.48254830    -0.20120
F888        F  0.70908305  0.90953951  0.44142149    -0.22790
C889        C  0.72291248  0.81381236  0.63910672    -0.05630
C890        C  0.70455219  0.82413255  0.65404937     0.00300
C891        C  0.69933946  0.81323995  0.67976952    -0.08270
C892        C  0.71105425  0.79090568  0.68798856    -0.05650
C893        C  0.72932509  0.78032233  0.67301927     0.00280
C894        C  0.73597272  0.79273866  0.64842285    -0.08180
C895        C  0.75679393  0.78449672  0.63195377     0.62200
H896        H  0.72697322  0.82235487  0.61969451     0.12890
H897        H  0.70617054  0.78200472  0.70699831     0.12900
C898        C  0.68225768  0.82492760  0.69958505     0.62430
F899        F  0.76006216  0.79984732  0.60928832    -0.22740
F900        F  0.75414867  0.75934190  0.62312919    -0.20070
F901        F  0.77628151  0.78653819  0.64764959    -0.19740
F902        F  0.66071894  0.81502078  0.69470162    -0.19800
F903        F  0.68185326  0.85155721  0.69765593    -0.20120
F904        F  0.68806015  0.81901136  0.72606579    -0.22790
C905        C  0.38617251  0.96464627  0.46632837    -0.05630
C906        C  0.36461430  0.96196413  0.47857574     0.00300
C907        C  0.34480136  0.96820584  0.46339095    -0.08270
C908        C  0.34744224  0.97534187  0.43592390    -0.05650
C909        C  0.36913145  0.97784559  0.42369828     0.00280
C910        C  0.38894405  0.97384720  0.43982264    -0.08180
C911        C  0.41312037  0.98044129  0.43061806     0.62200
H912        H  0.40127285  0.95986716  0.47794983     0.12890
H913        H  0.33243461  0.97909097  0.42373666     0.12900
C914        C  0.32110029  0.96835915  0.47606424     0.62430
F915        F  0.42716399  0.98536192  0.45257622    -0.22740
F916        F  0.41331099  0.00244201  0.41473275    -0.20070
F917        F  0.42237783  0.95990044  0.41648615    -0.19740
F918        F  0.32143956  0.98171118  0.50033805    -0.19800
F919        F  0.31385873  0.94336543  0.48058664    -0.20120
F920        F  0.30524385  0.98023669  0.45940107    -0.22790
C921        C  0.50148928  0.93813193  0.61760423    -0.05630
C922        C  0.48925164  0.91492755  0.62009753     0.00300
C923        C  0.50149551  0.89121212  0.62139787    -0.08270
C924        C  0.52550207  0.89177893  0.61870154    -0.05650
C925        C  0.53747142  0.91492269  0.61463870     0.00280
C926        C  0.52541565  0.93865303  0.61505554    -0.08260
C927        C  0.53750806  0.96455174  0.61311816     0.62200
H928        H  0.49198208  0.95607954  0.61693626     0.12890
H929        H  0.53517777  0.87394527  0.61902249     0.12900
C930        C  0.48965568  0.86531251  0.62481431     0.62430
F931        F  0.52321486  0.98469870  0.62050842    -0.22740
F932        F  0.54462444  0.96889775  0.58680733    -0.20070
F933        F  0.55620249  0.96499146  0.63022119    -0.19740
F934        F  0.47253118  0.86255160  0.60577451    -0.19800
F935        F  0.48051101  0.86356991  0.65058936    -0.20120
F936        F  0.50469319  0.84486208  0.62157907    -0.22790
C937        C  0.30134622  0.82460261  0.64437498    -0.05630
C938        C  0.32531860  0.82321599  0.64404486     0.00300
C939        C  0.33630758  0.80017161  0.65265647    -0.08270
C940        C  0.32279465  0.77997097  0.66292487    -0.05650
C941        C  0.29887965  0.78156588  0.66377524     0.00280
C942        C  0.28780714  0.80408575  0.65398601    -0.08180
C943        C  0.26192828  0.80687775  0.65433997     0.62200
H944        H  0.29327829  0.84213654  0.63719920     0.12890
H945        H  0.33089664  0.76257292  0.67043607     0.12900
C946        C  0.36201593  0.79620332  0.65049123     0.62430
F947        F  0.25500507  0.83131093  0.64645341    -0.22740
F948        F  0.25365161  0.80257064  0.68020430    -0.20070
F949        F  0.25229067  0.78927806  0.63669677    -0.19740
F950        F  0.37288814  0.80919407  0.67120033    -0.19800
F951        F  0.37002886  0.80496387  0.62573504    -0.20120
F952        F  0.36781056  0.77035325  0.65253150    -0.22790
loop_ 
_geom_bond_atom_site_label_1 
_geom_bond_atom_site_label_2 
_geom_bond_distance 
_geom_bond_site_symmetry_2 
_ccdc_geom_bond_type 
N1            N2   1.320       .  A
N1            C5   1.349       .  A
N1           Cu9   2.082       .  S
N2            C3   1.339       .  A
N2           Cu8   2.066       .  S
C3            C4   1.386       .  A
C3            H6   1.082       .  S
C4            C5   1.391       .  A
C4          C906   1.490       .  S
C5            H7   1.079       .  S
Cu8          N11   2.068       .  S
Cu9          N19   2.083       .  S
Cu10         N12   2.068       .  S
Cu10         N18   2.069       .  S
N11          N12   1.318       .  A
N11          C15   1.342       .  A
N12          C13   1.347       .  A
C13          C14   1.389       .  A
C13          H16   1.078       .  S
C14          C15   1.387       .  A
C14         C922   1.488       .  S
C15          H17   1.082       .  S
N18          N19   1.323       .  A
N18          C22   1.342       .  A
N19          C20   1.346       .  A
C20          C21   1.385       .  A
C20          H23   1.082       .  S
C21          C22   1.382       .  A
C21         C938   1.482       .  S
C22          H24   1.078       .  S
N25          N26   1.322       .  A
N25          C29   1.351       .  A
N25         Cu33   2.088       .  S
N26          C27   1.338       .  A
N26         Cu32   2.060       .  S
C27          C28   1.380       .  A
C27          H30   1.082       .  S
C28          C29   1.390       .  A
C28         C874   1.483       .  S
C29          H31   1.080       .  S
Cu32         N35   2.059       .  S
Cu33         N43   2.089       .  S
Cu34         N36   2.070       .  S
Cu34         N42   2.071       .  S
N35          N36   1.318       .  A
N35          C39   1.342       .  A
N36          C37   1.346       .  A
C37          C38   1.387       .  A
C37          H40   1.082       .  S
C38          C39   1.384       .  A
C38         C925   1.482       .  S
C39          H41   1.080       .  S
N42          N43   1.322       .  A
N42          C46   1.342       .  A
N43          C44   1.346       .  A
C44          C45   1.392       .  A
C44          H47   1.082       .  S
C45          C46   1.385       .  A
C45         C890   1.494       .  S
C46          H48   1.077       .  S
N49          N50   1.323   1_545  A
N49          C53   1.348       .  A
N49         Cu57   2.075       .  S
N50          C51   1.343       .  A
N50         Cu56   2.072   1_565  S
C51          C52   1.381       .  A
C51          H54   1.082       .  S
C52          C53   1.383   1_565  A
C52         C877   1.474       .  S
C53          H55   1.082       .  S
Cu56         N59   2.072       .  S
Cu57         N67   2.076       .  S
Cu58         N60   2.071       .  S
Cu58         N66   2.071       .  S
N59          N60   1.322       .  A
N59          C63   1.344       .  A
N60          C61   1.347       .  A
C61          C62   1.382       .  A
C61          H64   1.082       .  S
C62          C63   1.381       .  A
C62         C845   1.474       .  S
C63          H65   1.082       .  S
N66          N67   1.323       .  A
N66          C70   1.343       .  A
N67          C68   1.345       .  A
C68          C69   1.384       .  A
C68          H71   1.082       .  S
C69          C70   1.383       .  A
C69         C858   1.480       .  S
C70          H72   1.079       .  S
N73          N74   1.321   1_545  A
N73          C77   1.347       .  A
N73         Cu81   2.076       .  S
N74          C75   1.342       .  A
N74         Cu80   2.074   1_565  S
C75          C76   1.386       .  A
C75          H78   1.077       .  S
C76          C77   1.389   1_565  A
C76         C909   1.492       .  S
C77          H79   1.082       .  S
Cu80         N83   2.076       .  S
Cu81         N91   2.076       .  S
Cu82         N84   2.068       .  S
Cu82         N90   2.068       .  S
N83          N84   1.321       .  A
N83          C87   1.345       .  A
N84          C85   1.346       .  A
C85          C86   1.382       .  A
C85          H88   1.082       .  S
C86          C87   1.383       .  A
C86         C842   1.476       .  S
C87          H89   1.082   1_545  S
N90          N91   1.319       .  A
N90          C94   1.339       .  A
N91          C92   1.346       .  A
C92          C93   1.394       .  A
C92          H95   1.075       .  S
C93          C94   1.390       .  A
C93         C826   1.500       .  S
C94          H96   1.082       .  S
N97          N98   1.322       .  A
N97         C101   1.349       .  A
N97        Cu105   2.085       .  S
N98          C99   1.341       .  A
N98        Cu104   2.074       .  S
C99         C100   1.386       .  A
C99         H102   1.082       .  S
C100        C101   1.390       .  A
C100        C778   1.488       .  S
C101        H103   1.080       .  S
Cu104       N107   2.074       .  S
Cu105       N115   2.085       .  S
Cu106       N108   2.063       .  S
Cu106       N114   2.064       .  S
N107        N108   1.321       .  A
N107        C111   1.345       .  A
N108        C109   1.345       .  A
C109        C110   1.381       .  A
C109        H112   1.082       .  S
C110        C111   1.383       .  A
C110        C794   1.473       .  S
C111        H113   1.082       .  S
N114        N115   1.324       .  A
N114        C118   1.342       .  A
N115        C116   1.348       .  A
C116        C117   1.385       .  A
C116        H119   1.082       .  S
C117        C118   1.378       .  A
C117        C810   1.474       .  S
C118        H120   1.082       .  S
N121        N122   1.320       .  A
N121        C125   1.349       .  A
N121       Cu129   2.081       .  S
N122        C123   1.339       .  A
N122       Cu128   2.056       .  S
C123        C124   1.382       .  A
C123        H126   1.081       .  S
C124        C125   1.389       .  A
C124        C746   1.482       .  S
C125        H127   1.082       .  S
Cu128       N131   2.056       .  S
Cu129       N139   2.082       .  S
Cu130       N132   2.075       .  S
Cu130       N138   2.076       .  S
N131        N132   1.320       .  A
N131        C135   1.341       .  A
N132        C133   1.348       .  A
C133        C134   1.385       .  A
C133        H136   1.082       .  S
C134        C135   1.379       .  A
C134        C797   1.474       .  S
C135        H137   1.082       .  S
N138        N139   1.325       .  A
N138        C142   1.343       .  A
N139        C140   1.346       .  A
C140        C141   1.381       .  A
C140        H143   1.082       .  S
C141        C142   1.379       .  A
C141        C762   1.471       .  S
C142        H144   1.082       .  S
N145        N146   1.320       .  A
N145        C149   1.348       .  A
N145       Cu153   2.085       .  S
N146        C147   1.341       .  A
N146       Cu152   2.072       .  S
C147        C148   1.387       .  A
C147        H150   1.075       .  S
C148        C149   1.392       .  A
C148        C781   1.497       .  S
C149        H151   1.082       .  S
Cu152       N155   2.075       .  S
Cu153       N163   2.085       .  S
Cu154       N156   2.066       .  S
Cu154       N162   2.067       .  S
N155        N156   1.320       .  A
N155        C159   1.345       .  A
N156        C157   1.346       .  A
C157        C158   1.383       .  A
C157        H160   1.082       .  S
C158        C159   1.385       .  A
C158        C714   1.481       .  S
C159        H161   1.081       .  S
N162        N163   1.323       .  A
N162        C166   1.343       .  A
N163        C164   1.347       .  A
C164        C165   1.384       .  A
C164        H167   1.082       .  S
C165        C166   1.379       .  A
C165        C733   1.475       .  S
C166        H168   1.082       .  S
N169        N170   1.322       .  A
N169        C173   1.346       .  A
N169       Cu177   2.072       .  S
N170        C171   1.343       .  A
N170       Cu176   2.072       .  S
C171        C172   1.381       .  A
C171        H174   1.082       .  S
C172        C173   1.382       .  A
C172        C749   1.472       .  S
C173        H175   1.082       .  S
Cu176       N179   2.072       .  S
Cu177       N187   2.073       .  S
Cu178       N180   2.076       .  S
Cu178       N186   2.076       .  S
N179        N180   1.320       .  A
N179        C183   1.342       .  A
N180        C181   1.347       .  A
C181        C182   1.389       .  A
C181        H184   1.078       .  S
C182        C183   1.386       .  A
C182        C717   1.489       .  S
C183        H185   1.082       .  S
N186        N187   1.320       .  A
N186        C190   1.342       .  A
N187        C188   1.345       .  A
C188        C189   1.389       .  A
C188        H191   1.076       .  S
C189        C190   1.390       .  A
C189        C698   1.495       .  S
C190        H192   1.082       .  S
N193        N194   1.321       .  A
N193        C197   1.348       .  A
N193       Cu201   2.085       .  S
N194        C195   1.340       .  A
N194       Cu200   2.070       .  S
C195        C196   1.386       .  A
C195        H198   1.075       .  S
C196        C197   1.391       .  A
C196        C650   1.495       .  S
C197        H199   1.082       .  S
Cu200       N203   2.073       .  S
Cu201       N211   2.085       .  S
Cu202       N204   2.063       .  S
Cu202       N210   2.064       .  S
N203        N204   1.320       .  A
N203        C207   1.345       .  A
N204        C205   1.346       .  A
C205        C206   1.382       .  A
C205        H208   1.082       .  S
C206        C207   1.384       .  A
C206        C666   1.477       .  S
C207        H209   1.082       .  S
N210        N211   1.323       .  A
N210        C214   1.341       .  A
N211        C212   1.347       .  A
C212        C213   1.385       .  A
C212        H215   1.082       .  S
C213        C214   1.379       .  A
C213        C682   1.476       .  S
C214        H216   1.081       .  S
N217        N218   1.322       .  A
N217        C221   1.347       .  A
N217       Cu225   2.072       .  S
N218        C219   1.342       .  A
N218       Cu224   2.070       .  S
C219        C220   1.381       .  A
C219        H222   1.082       .  S
C220        C221   1.383       .  A
C220        C618   1.475       .  S
C221        H223   1.082       .  S
Cu224       N227   2.070       .  S
Cu225       N235   2.073       .  S
Cu226       N228   2.073       .  S
Cu226       N234   2.073       .  S
N227        N228   1.321       .  A
N227        C231   1.343       .  A
N228        C229   1.347       .  A
C229        C230   1.386       .  A
C229        H232   1.081       .  S
C230        C231   1.384       .  A
C230        C669   1.481       .  S
C231        H233   1.082       .  S
N234        N235   1.322       .  A
N234        C238   1.343       .  A
N235        C236   1.345       .  A
C236        C237   1.385       .  A
C236        H239   1.079       .  S
C237        C238   1.385       .  A
C237        C634   1.482       .  S
C238        H240   1.082       .  S
N241        N242   1.320   1_545  A
N241        C245   1.351       .  A
N241       Cu249   2.086       .  S
N242        C243   1.337       .  A
N242       Cu248   2.059   1_565  S
C243        C244   1.383       .  A
C243        H246   1.082       .  S
C244        C245   1.392   1_565  A
C244        C653   1.487   1_554  S
C245        H247   1.080       .  S
Cu248       N251   2.061       .  S
Cu249       N259   2.088       .  S
Cu250       N252   2.069       .  S
Cu250       N258   2.072       .  S
N251        N252   1.316       .  A
N251        C255   1.341       .  A
N252        C253   1.346       .  A
C253        C254   1.394       .  A
C253        H256   1.082       .  S
C254        C255   1.390       .  A
C254        C586   1.498       .  S
C255        H257   1.076       .  S
N258        N259   1.319       .  A
N258        C262   1.339       .  A
N259        C260   1.343       .  A
C260        C261   1.403       .  A
C260        H263   1.079       .  S
C261        C262   1.396       .  A
C261        C602   1.519       .  S
C262        H264   1.070       .  S
N265        N266   1.319       .  A
N265        C269   1.350       .  A
N265       Cu273   2.079       .  S
N266        C267   1.337       .  A
N266       Cu272   2.056       .  S
C267        C268   1.384   1_545  A
C267        H270   1.082   1_545  S
C268        C269   1.393   1_565  A
C268        C621   1.490   1_554  S
C269        H271   1.078       .  S
Cu272       N275   2.056       .  S
Cu273       N283   2.081       .  S
Cu274       N276   2.077       .  S
Cu274       N282   2.079       .  S
N275        N276   1.318       .  A
N275        C279   1.339       .  A
N276        C277   1.349       .  A
C277        C278   1.392       .  A
C277        H280   1.079       .  S
C278        C279   1.383       .  A
C278        C589   1.487       .  S
C279        H281   1.082       .  S
N282        N283   1.326       .  A
N282        C286   1.344       .  A
N283        C284   1.346       .  A
C284        C285   1.380       .  A
C284        H287   1.082       .  S
C285        C286   1.379       .  A
C285        C573   1.472       .  S
C286        H288   1.082       .  S
N289        N290   1.322       .  A
N289        C293   1.348       .  A
N289       Cu297   2.080       .  S
N290        C291   1.342       .  A
N290       Cu296   2.063       .  S
C291        C292   1.380       .  A
C291        H294   1.082       .  S
C292        C293   1.385       .  A
C292        C522   1.476       .  S
C293        H295   1.082       .  S
Cu296       N299   2.064       .  S
Cu297       N307   2.081       .  S
Cu298       N300   2.075       .  S
Cu298       N306   2.076       .  S
N299        N300   1.320       .  A
N299        C303   1.341       .  A
N300        C301   1.347       .  A
C301        C302   1.387       .  A
C301        H304   1.082       .  S
C302        C303   1.383       .  A
C302        C538   1.482       .  S
C303        H305   1.080       .  S
N306        N307   1.324       .  A
N306        C310   1.344       .  A
N307        C308   1.346       .  A
C308        C309   1.384       .  A
C308        H311   1.081       .  S
C309        C310   1.382       .  A
C309        C554   1.478       .  S
C310        H312   1.082       .  S
N313        N314   1.323       .  A
N313        C317   1.348       .  A
N313       Cu321   2.080       .  S
N314        C315   1.342       .  A
N314       Cu320   2.069       .  S
C315        C316   1.379       .  A
C315        H318   1.082       .  S
C316        C317   1.384       .  A
C316        C490   1.475       .  S
C317        H319   1.082       .  S
Cu320       N323   2.069       .  S
Cu321       N331   2.080       .  S
Cu322       N324   2.065       .  S
Cu322       N330   2.066       .  S
N323        N324   1.320       .  A
N323        C327   1.342       .  A
N324        C325   1.346       .  A
C325        C326   1.386       .  A
C325        H328   1.079       .  S
C326        C327   1.385       .  A
C326        C541   1.482       .  S
C327        H329   1.082       .  S
N330        N331   1.323       .  A
N330        C334   1.342       .  A
N331        C332   1.346       .  A
C332        C333   1.385       .  A
C332        H335   1.082       .  S
C333        C334   1.380       .  A
C333        C506   1.476       .  S
C334        H336   1.081       .  S
N337        N338   1.318       .  A
N337        C341   1.349       .  A
N337       Cu345   2.083       .  S
N338        C339   1.338       .  A
N338       Cu344   2.063       .  S
C339        C340   1.389       .  A
C339        H342   1.082       .  S
C340        C341   1.396       .  A
C340        C525   1.502   1_554  S
C341        H343   1.076       .  S
Cu344       N347   2.060       .  S
Cu345       N355   2.085       .  S
Cu346       N348   2.075       .  S
Cu346       N354   2.077       .  S
N347        N348   1.319       .  A
N347        C351   1.341       .  A
N348        C349   1.347       .  A
C349        C350   1.389       .  A
C349        H352   1.082       .  S
C350        C351   1.385       .  A
C350        C458   1.488       .  S
C351        H353   1.077       .  S
N354        N355   1.325       .  A
N354        C358   1.344       .  A
N355        C356   1.346       .  A
C356        C357   1.384       .  A
C356        H359   1.082       .  S
C357        C358   1.381       .  A
C357        C474   1.478       .  S
C358        H360   1.081       .  S
N361        N362   1.320       .  A
N361        C365   1.348       .  A
N361       Cu369   2.078       .  S
N362        C363   1.340       .  A
N362       Cu368   2.071       .  S
C363        C364   1.387       .  A
C363        H366   1.082       .  S
C364        C365   1.392       .  A
C364        C493   1.494   1_554  S
C365        H367   1.077       .  S
Cu368       N371   2.070       .  S
Cu369       N379   2.079       .  S
Cu370       N372   2.067       .  S
Cu370       N378   2.068       .  S
N371        N372   1.318       .  A
N371        C375   1.341       .  A
N372        C373   1.346       .  A
C373        C374   1.390       .  A
C373        H376   1.077       .  S
C374        C375   1.389       .  A
C374        C461   1.492       .  S
C375        H377   1.082       .  S
N378        N379   1.324       .  A
N378        C382   1.342       .  A
N379        C380   1.347       .  A
C380        C381   1.384       .  A
C380        H383   1.082       .  S
C381        C382   1.379       .  A
C381        C442   1.473       .  S
C382        H384   1.082       .  S
O385       Cu393   2.005       .  S
O385        C395   1.276       .  A
O386       Cu393   2.002       .  S
O386        C396   1.278       .  A
O387       Cu393   2.006       .  S
O387        C397   1.276       .  A
O388       Cu393   2.011       .  S
O388        C398   1.278       .  A
O389       Cu394   2.008       .  S
O389        C398   1.277       .  A
O390       Cu394   2.006       .  S
O390        C397   1.277       .  A
O391       Cu394   2.007       .  S
O391        C396   1.276       .  A
O392       Cu394   2.006       .  S
O392        C395   1.278       .  A
Cu393      Cu394   2.372       .  S
C395        C941   1.479       .  S
C396        C509   1.482       .  S
C397        C637   1.475       .  S
C398        C730   1.477       .  S
O399       Cu407   2.006       .  S
O399        C409   1.279       .  A
O400       Cu407   2.009       .  S
O400        C410   1.277       .  A
O401       Cu407   2.004       .  S
O401        C411   1.276       .  A
O402       Cu407   2.000       .  S
O402        C412   1.275       .  A
O403       Cu408   2.012       .  S
O403        C412   1.279       .  A
O404       Cu408   2.009       .  S
O404        C411   1.277       .  A
O405       Cu408   2.002       .  S
O405        C410   1.276       .  A
O406       Cu408   2.007       .  S
O406        C409   1.275       .  A
Cu407      Cu408   2.370       .  S
C409        C893   1.499       .  S
C410        C557   1.470       .  S
C411        C685   1.471       .  S
C412        C701   1.483       .  S
O413       Cu421   2.008       .  S
O413        C423   1.279       .  A
O414       Cu421   2.007       .  S
O414        C424   1.277       .  A
O415       Cu421   2.002       .  S
O415        C425   1.276       .  A
O416       Cu421   2.003       .  S
O416        C426   1.276       .  A
O417       Cu422   2.011       .  S
O417        C426   1.278       .  A
O418       Cu422   2.016       .  S
O418        C425   1.278       .  A
O419       Cu422   2.002       .  S
O419        C424   1.276       .  A
O420       Cu422   1.998       .  S
O420        C423   1.274       .  A
Cu421      Cu422   2.373       .  S
C423        C829   1.498       .  S
C424        C445   1.467       .  S
C425        C570   1.473       .  S
C426        C813   1.469       .  S
O427       Cu435   2.008       .  S
O427        C437   1.277       .  A
O428       Cu435   2.003       .  S
O428        C438   1.275       .  A
O429       Cu435   2.009       .  S
O429        C439   1.276       .  A
O430       Cu435   2.004       .  S
O430        C440   1.277       .  A
O431       Cu436   2.002       .  S
O431        C440   1.276       .  A
O432       Cu436   1.998       .  S
O432        C439   1.279       .  A
O433       Cu436   2.010       .  S
O433        C438   1.279       .  A
O434       Cu436   2.008       .  S
O434        C437   1.276       .  A
Cu435      Cu436   2.369       .  S
C437        C861   1.475       .  S
C438        C477   1.486       .  S
C439        C605   1.498       .  S
C440        C765   1.470       .  S
C441        C442   1.406       .  A
C441        C446   1.405       .  A
C441        H448   1.083       .  S
C442        C443   1.420       .  A
C443        C444   1.403       .  A
C443        C450   1.520       .  S
C444        C445   1.400       .  A
C444        H449   1.085       .  S
C445        C446   1.409       .  A
C446        C447   1.516       .  S
C447        F451   1.384       .  S
C447        F452   1.383       .  S
C447        F453   1.383       .  S
C450        F454   1.384       .  S
C450        F455   1.380       .  S
C450        F456   1.383       .  S
C457        C458   1.405   1_455  A
C457        C462   1.411       .  A
C457        H464   1.083   1_455  S
C458        C459   1.421   1_655  A
C459        C460   1.403       .  A
C459        C466   1.522   1_455  S
C460        C461   1.404       .  A
C460        H465   1.083       .  S
C461        C462   1.422       .  A
C462        C463   1.519       .  S
C463        F467   1.385       .  S
C463        F468   1.383       .  S
C463        F469   1.381       .  S
C466        F470   1.381       .  S
C466        F471   1.383       .  S
C466        F472   1.385   1_655  S
C473        C474   1.402       .  A
C473        C478   1.408       .  A
C473        H480   1.083       .  S
C474        C475   1.414       .  A
C475        C476   1.405       .  A
C475        C482   1.519       .  S
C476        C477   1.406       .  A
C476        H481   1.083       .  S
C477        C478   1.422       .  A
C478        C479   1.520       .  S
C479        F483   1.385       .  S
C479        F484   1.383       .  S
C479        F485   1.383       .  S
C482        F486   1.383       .  S
C482        F487   1.381       .  S
C482        F488   1.385       .  S
C489        C490   1.399       .  A
C489        C494   1.412       .  A
C489        H496   1.083       .  S
C490        C491   1.412       .  A
C491        C492   1.403       .  A
C491        C498   1.519       .  S
C492        C493   1.407       .  A
C492        H497   1.083       .  S
C493        C494   1.426       .  A
C494        C495   1.518       .  S
C495        F499   1.385       .  S
C495        F500   1.383       .  S
C495        F501   1.382       .  S
C498        F502   1.382       .  S
C498        F503   1.383       .  S
C498        F504   1.384       .  S
C505        C506   1.403       .  A
C505        C510   1.408       .  A
C505        H512   1.083       .  S
C506        C507   1.414       .  A
C507        C508   1.403       .  A
C507        C514   1.520       .  S
C508        C509   1.405       .  A
C508        H513   1.083       .  S
C509        C510   1.420       .  A
C510        C511   1.519       .  S
C511        F515   1.385       .  S
C511        F516   1.382       .  S
C511        F517   1.382       .  S
C514        F518   1.380       .  S
C514        F519   1.384       .  S
C514        F520   1.385       .  S
C521        C522   1.399       .  A
C521        C526   1.413       .  A
C521        H528   1.083       .  S
C522        C523   1.411       .  A
C523        C524   1.403       .  A
C523        C530   1.521       .  S
C524        C525   1.410       .  A
C524        H529   1.082       .  S
C525        C526   1.428       .  A
C526        C527   1.517       .  S
C527        F531   1.385       .  S
C527        F532   1.382       .  S
C527        F533   1.382       .  S
C530        F534   1.383       .  S
C530        F535   1.382       .  S
C530        F536   1.384       .  S
C537        C538   1.405   1_455  A
C537        C542   1.410       .  A
C537        H544   1.083   1_455  S
C538        C539   1.417   1_655  A
C539        C540   1.403       .  A
C539        C546   1.519   1_455  S
C540        C541   1.402       .  A
C540        H545   1.084       .  S
C541        C542   1.420       .  A
C542        C543   1.519       .  S
C543        F547   1.385       .  S
C543        F548   1.381       .  S
C543        F549   1.383       .  S
C546        F550   1.383       .  S
C546        F551   1.381       .  S
C546        F552   1.385   1_655  S
C553        C554   1.405       .  A
C553        C558   1.406       .  A
C553        H560   1.083       .  S
C554        C555   1.417       .  A
C555        C556   1.406       .  A
C555        C562   1.519       .  S
C556        C557   1.402       .  A
C556        H561   1.084       .  S
C557        C558   1.412       .  A
C558        C559   1.517       .  S
C559        F563   1.385       .  S
C559        F564   1.383       .  S
C559        F565   1.382       .  S
C562        F566   1.381       .  S
C562        F567   1.383       .  S
C562        F568   1.385       .  S
C569        C570   1.401       .  A
C569        C574   1.408       .  A
C569        H576   1.083       .  S
C570        C571   1.418       .  A
C571        C572   1.405       .  A
C571        C578   1.518       .  S
C572        C573   1.398       .  A
C572        H577   1.083       .  S
C573        C574   1.416       .  A
C574        C575   1.517       .  S
C575        F579   1.384       .  S
C575        F580   1.383       .  S
C575        F581   1.383       .  S
C578        F582   1.382       .  S
C578        F583   1.382       .  S
C578        F584   1.384       .  S
C585        C586   1.410   1_455  A
C585        C590   1.411       .  A
C585        H592   1.081   1_455  S
C586        C587   1.425   1_655  A
C587        C588   1.404       .  A
C587        C594   1.520   1_545  S
C588        C589   1.402       .  A
C588        H593   1.084   1_545  S
C589        C590   1.417       .  A
C590        C591   1.519       .  S
C591        F595   1.385       .  S
C591        F596   1.383       .  S
C591        F597   1.382       .  S
C594        F598   1.383   1_455  S
C594        F599   1.383   1_455  S
C594        F600   1.385       .  S
C601        C602   1.414       .  A
C601        C606   1.409       .  A
C601        H608   1.075       .  S
C602        C603   1.433       .  A
C603        C604   1.408       .  A
C603        C610   1.521       .  S
C604        C605   1.403       .  A
C604        H609   1.081       .  S
C605        C606   1.420       .  A
C606        C607   1.524       .  S
C607        F611   1.385       .  S
C607        F612   1.383       .  S
C607        F613   1.384       .  S
C610        F614   1.382       .  S
C610        F615   1.383       .  S
C610        F616   1.386       .  S
C617        C618   1.402       .  A
C617        C622   1.412       .  A
C617        H624   1.083       .  S
C618        C619   1.414       .  A
C619        C620   1.401       .  A
C619        C626   1.520       .  S
C620        C621   1.406       .  A
C620        H625   1.083       .  S
C621        C622   1.422       .  A
C622        C623   1.517   1_565  S
C623        F627   1.385       .  S
C623        F628   1.382   1_545  S
C623        F629   1.383       .  S
C626        F630   1.383       .  S
C626        F631   1.381       .  S
C626        F632   1.385       .  S
C633        C634   1.406       .  A
C633        C638   1.405       .  A
C633        H640   1.083       .  S
C634        C635   1.418       .  A
C635        C636   1.406       .  A
C635        C642   1.520       .  S
C636        C637   1.403       .  A
C636        H641   1.084       .  S
C637        C638   1.414       .  A
C638        C639   1.518       .  S
C639        F643   1.385       .  S
C639        F644   1.382       .  S
C639        F645   1.382       .  S
C642        F646   1.380       .  S
C642        F647   1.383       .  S
C642        F648   1.385       .  S
C649        C650   1.411       .  A
C649        C654   1.414       .  A
C649        H656   1.083       .  S
C650        C651   1.426       .  A
C651        C652   1.400       .  A
C651        C658   1.523       .  S
C652        C653   1.401       .  A
C652        H657   1.083       .  S
C653        C654   1.415       .  A
C654        C655   1.517       .  S
C655        F659   1.385       .  S
C655        F660   1.381       .  S
C655        F661   1.383   1_556  S
C658        F662   1.381       .  S
C658        F663   1.383       .  S
C658        F664   1.386       .  S
C665        C666   1.402   1_455  A
C665        C670   1.409       .  A
C665        H672   1.083   1_455  S
C666        C667   1.416   1_655  A
C667        C668   1.406       .  A
C667        C674   1.519   1_455  S
C668        C669   1.404       .  A
C668        H673   1.083       .  S
C669        C670   1.418       .  A
C670        C671   1.518       .  S
C671        F675   1.385       .  S
C671        F676   1.381       .  S
C671        F677   1.383       .  S
C674        F678   1.384       .  S
C674        F679   1.381       .  S
C674        F680   1.385   1_655  S
C681        C682   1.402       .  A
C681        C686   1.407       .  A
C681        H688   1.083       .  S
C682        C683   1.418       .  A
C683        C684   1.405       .  A
C683        C690   1.519       .  S
C684        C685   1.399       .  A
C684        H689   1.083       .  S
C685        C686   1.417       .  A
C686        C687   1.519       .  S
C687        F691   1.384       .  S
C687        F692   1.382       .  S
C687        F693   1.382       .  S
C690        F694   1.383       .  S
C690        F695   1.381       .  S
C690        F696   1.384       .  S
C697        C698   1.408       .  A
C697        C702   1.405       .  A
C697        H704   1.081       .  S
C698        C699   1.424       .  A
C699        C700   1.408       .  A
C699        C706   1.520       .  S
C700        C701   1.403       .  A
C700        H705   1.083       .  S
C701        C702   1.416       .  A
C702        C703   1.521       .  S
C703        F707   1.385       .  S
C703        F708   1.383       .  S
C703        F709   1.383       .  S
C706        F710   1.381       .  S
C706        F711   1.383       .  S
C706        F712   1.385       .  S
C713        C714   1.402       .  A
C713        C718   1.410       .  A
C713        H720   1.083       .  S
C714        C715   1.416       .  A
C715        C716   1.405       .  A
C715        C722   1.520       .  S
C716        C717   1.406       .  A
C716        H721   1.083       .  S
C717        C718   1.421       .  A
C718        C719   1.518       .  S
C719        F723   1.385       .  S
C719        F724   1.381       .  S
C719        F725   1.383       .  S
C722        F726   1.384       .  S
C722        F727   1.381       .  S
C722        F728   1.385       .  S
C729        C730   1.402       .  A
C729        C734   1.407       .  A
C729        H736   1.083       .  S
C730        C731   1.418       .  A
C731        C732   1.406       .  A
C731        C738   1.519       .  S
C732        C733   1.401       .  A
C732        H737   1.083       .  S
C733        C734   1.415       .  A
C734        C735   1.517       .  S
C735        F739   1.384       .  S
C735        F740   1.382       .  S
C735        F741   1.384       .  S
C738        F742   1.381       .  S
C738        F743   1.382       .  S
C738        F744   1.385       .  S
C745        C746   1.407       .  A
C745        C750   1.409       .  A
C745        H752   1.083       .  S
C746        C747   1.420       .  A
C747        C748   1.401       .  A
C747        C754   1.519       .  S
C748        C749   1.398       .  A
C748        H753   1.085       .  S
C749        C750   1.412       .  A
C750        C751   1.515       .  S
C751        F755   1.384       .  S
C751        F756   1.383       .  S
C751        F757   1.383       .  S
C754        F758   1.383       .  S
C754        F759   1.383       .  S
C754        F760   1.384       .  S
C761        C762   1.403       .  A
C761        C766   1.407       .  A
C761        H768   1.083       .  S
C762        C763   1.412       .  A
C763        C764   1.404       .  A
C763        C770   1.517       .  S
C764        C765   1.402       .  A
C764        H769   1.084       .  S
C765        C766   1.414       .  A
C766        C767   1.517       .  S
C767        F771   1.385       .  S
C767        F772   1.382       .  S
C767        F773   1.383       .  S
C770        F774   1.383       .  S
C770        F775   1.382       .  S
C770        F776   1.385       .  S
C777        C778   1.401       .  A
C777        C782   1.403       .  A
C777        H784   1.083       .  S
C778        C779   1.416       .  A
C779        C780   1.413       .  A
C779        C786   1.518       .  S
C780        C781   1.410       .  A
C780        H785   1.083       .  S
C781        C782   1.427       .  A
C782        C783   1.522       .  S
C783        F787   1.385       .  S
C783        F788   1.381       .  S
C783        F789   1.383       .  S
C786        F790   1.381       .  S
C786        F791   1.383       .  S
C786        F792   1.385       .  S
C793        C794   1.401       .  A
C793        C798   1.405       .  A
C793        H800   1.083       .  S
C794        C795   1.413       .  A
C795        C796   1.408       .  A
C795        C802   1.516       .  S
C796        C797   1.402       .  A
C796        H801   1.083       .  S
C797        C798   1.416       .  A
C798        C799   1.519       .  S
C799        F803   1.385       .  S
C799        F804   1.381       .  S
C799        F805   1.384       .  S
C802        F806   1.383       .  S
C802        F807   1.383       .  S
C802        F808   1.384       .  S
C809        C810   1.405       .  A
C809        C814   1.406       .  A
C809        H816   1.083       .  S
C810        C811   1.420       .  A
C811        C812   1.405       .  A
C811        C818   1.520       .  S
C812        C813   1.400       .  A
C812        H817   1.084       .  S
C813        C814   1.411       .  A
C814        C815   1.517       .  S
C815        F819   1.384       .  S
C815        F820   1.382       .  S
C815        F821   1.383       .  S
C818        F822   1.384       .  S
C818        F823   1.380       .  S
C818        F824   1.383       .  S
C825        C826   1.407       .  A
C825        C830   1.406       .  A
C825        H832   1.081       .  S
C826        C827   1.423       .  A
C827        C828   1.409       .  A
C827        C834   1.520       .  S
C828        C829   1.408       .  A
C828        H833   1.081       .  S
C829        C830   1.425       .  A
C830        C831   1.524       .  S
C831        F835   1.385       .  S
C831        F836   1.384       .  S
C831        F837   1.383       .  S
C834        F838   1.382       .  S
C834        F839   1.382       .  S
C834        F840   1.385       .  S
C841        C842   1.402       .  A
C841        C846   1.407       .  A
C841        H848   1.083       .  S
C842        C843   1.414       .  A
C843        C844   1.407       .  A
C843        C850   1.517   1_545  S
C844        C845   1.401       .  A
C844        H849   1.083       .  S
C845        C846   1.415       .  A
C846        C847   1.518       .  S
C847        F851   1.385       .  S
C847        F852   1.383       .  S
C847        F853   1.382       .  S
C850        F854   1.384   1_565  S
C850        F855   1.382       .  S
C850        F856   1.384       .  S
C857        C858   1.403       .  A
C857        C862   1.406       .  A
C857        H864   1.083       .  S
C858        C859   1.420       .  A
C859        C860   1.406       .  A
C859        C866   1.519       .  S
C860        C861   1.400       .  A
C860        H865   1.084       .  S
C861        C862   1.418       .  A
C862        C863   1.519       .  S
C863        F867   1.385       .  S
C863        F868   1.382       .  S
C863        F869   1.381       .  S
C866        F870   1.384       .  S
C866        F871   1.381       .  S
C866        F872   1.385       .  S
C873        C874   1.404       .  A
C873        C878   1.403       .  A
C873        H880   1.083       .  S
C874        C875   1.419       .  A
C875        C876   1.411       .  A
C875        C882   1.517       .  S
C876        C877   1.401       .  A
C876        H881   1.083       .  S
C877        C878   1.413       .  A
C878        C879   1.519   1_565  S
C879        F883   1.385       .  S
C879        F884   1.382       .  S
C879        F885   1.383       .  S
C882        F886   1.383       .  S
C882        F887   1.382       .  S
C882        F888   1.385       .  S
C889        C890   1.406       .  A
C889        C894   1.410       .  A
C889        H896   1.081       .  S
C890        C891   1.421       .  A
C891        C892   1.404       .  A
C891        C898   1.521       .  S
C892        C893   1.408       .  A
C892        H897   1.083       .  S
C893        C894   1.426       .  A
C894        C895   1.522       .  S
C895        F899   1.385       .  S
C895        F900   1.383       .  S
C895        F901   1.384       .  S
C898        F902   1.382       .  S
C898        F903   1.383       .  S
C898        F904   1.385       .  S
C905        C906   1.403       .  A
C905        C910   1.401       .  A
C905        H912   1.083       .  S
C906        C907   1.419       .  A
C907        C908   1.413       .  A
C907        C914   1.518       .  S
C908        C909   1.408       .  A
C908        H913   1.083       .  S
C909        C910   1.422       .  A
C910        C911   1.522       .  S
C911        F915   1.386       .  S
C911        F916   1.383   1_565  S
C911        F917   1.381       .  S
C914        F918   1.384       .  S
C914        F919   1.380       .  S
C914        F920   1.385       .  S
C921        C922   1.404       .  A
C921        C926   1.404       .  A
C921        H928   1.083       .  S
C922        C923   1.423       .  A
C923        C924   1.410       .  A
C923        C930   1.519       .  S
C924        C925   1.403       .  A
C924        H929   1.083       .  S
C925        C926   1.417       .  A
C926        C927   1.520       .  S
C927        F931   1.385       .  S
C927        F932   1.381       .  S
C927        F933   1.383       .  S
C930        F934   1.383       .  S
C930        F935   1.381       .  S
C930        F936   1.385       .  S
C937        C938   1.403       .  A
C937        C942   1.407       .  A
C937        H944   1.083       .  S
C938        C939   1.421       .  A
C939        C940   1.405       .  A
C939        C946   1.520       .  S
C940        C941   1.401       .  A
C940        H945   1.084       .  S
C941        C942   1.419       .  A
C942        C943   1.520       .  S
C943        F947   1.385       .  S
C943        F948   1.382       .  S
C943        F949   1.382       .  S
C946        F950   1.381       .  S
C946        F951   1.383       .  S
C946        F952   1.385       .  S
