geometry optimzed in LAMMPS
_audit_creation_date              2020-11-30 
_audit_creation_method            'lammps2cif' 
_symmetry_space_group_name_H-M    'P1' 
_symmetry_Int_Tables_number       1 
_symmetry_cell_setting            triclinic 
loop_ 
_symmetry_equiv_pos_as_xyz 
  x,y,z 
_cell_length_a                    32.87842832810765 
_cell_length_b                    83.51017681575782 
_cell_length_c                    31.54207670521072 
_cell_angle_alpha                 90.01325079049359 
_cell_angle_beta                  91.1164665471703 
_cell_angle_gamma                 89.65912651229134 
loop_ 
_atom_site_label 
_atom_site_type_symbol 
_atom_site_fract_x 
_atom_site_fract_y 
_atom_site_fract_z 
_atom_site_charge 
O1          O  0.03447608  0.89191048  0.06427126    -0.81310
O2          O  0.35093228  0.88355714  0.06851964    -0.66000
O3          O  0.46339225  0.88194416  0.09198019    -1.12600
C4          C  0.46899128  0.83770258  0.00032576     1.05580
O5          O  0.34418022  0.85733068  0.06692452    -0.79210
O6          O  0.40857192  0.84084957  0.08964720    -0.66790
Ni7        Ni  0.49430259  0.90110401  0.09836953     1.34870
C8          C  0.44468047  0.84075833  0.10397460     0.84320
O9          O  0.39765031  0.89689136  0.12533834    -0.79740
O10         O  0.45678460  0.90984967  0.13625352    -0.90020
C11         C  0.33150190  0.87113393  0.07747070     0.83890
O12         O  0.46889673  0.91394835  0.05303346    -0.68220
O13         O  0.43143100  0.83609827  0.00886253    -0.87510
C14         C  0.43311982  0.91358863  0.03604632     0.84720
C15         C  0.41986822  0.90705644  0.14438732     1.06290
H16         H  0.41612769  0.87312556  0.00734568     0.38090
O17         O  0.41971058  0.86814905  0.03482962    -1.10170
O18         O  0.47195761  0.84984187  0.08988140    -0.66820
Ni19       Ni  0.47682075  0.86657009  0.04905379     1.26350
O20         O  0.40938554  0.90167299  0.04119270    -0.67050
O21         O  0.48848295  0.85064001  0.00724240    -0.79340
C22         C  0.04915334  0.87883999  0.07880825     0.84100
O23         O  0.03277655  0.86590680  0.06700835    -0.66520
Ni24       Ni  0.38920410  0.84837611  0.03634010     1.27450
Ni25       Ni  0.40758765  0.88320753  0.07926660     1.26060
H26         H  0.46583857  0.87669374  0.11921822     0.38650
O27         O  0.09235603  0.89134009  0.13113704    -0.81310
O28         O  0.27675922  0.88504298  0.11051903    -0.66000
O29         O  0.16276680  0.88358010  0.09888490    -1.12600
C30         C  0.17228379  0.84174380  0.20210955     1.05580
O31         O  0.28334382  0.85896706  0.11980179    -0.79210
O32         O  0.22258792  0.83952055  0.12109497    -0.66790
Ni33       Ni  0.12970763  0.90222271  0.09755367     1.34870
C34         C  0.19244256  0.84111519  0.09606029     0.84320
O35         O  0.22287228  0.89779015  0.05747313    -0.79740
O36         O  0.16513207  0.91259965  0.06028642    -0.90020
C37         C  0.29518101  0.87198794  0.10378293     0.83890
O38         O  0.15507890  0.91302599  0.14534397    -0.68220
O39         O  0.21051512  0.84417531  0.20432228    -0.87510
C40         C  0.19281928  0.91399568  0.15542043     0.84720
C41         C  0.19915618  0.90888344  0.04436830     1.06290
H42         H  0.21220900  0.87766806  0.18029597     0.38090
O43         O  0.21072746  0.87133745  0.15467356    -1.10170
O44         O  0.16605598  0.85215714  0.09861032    -0.66820
Ni45       Ni  0.15433319  0.86763632  0.14097412     1.26350
O46         O  0.21923653  0.90405746  0.14172679    -0.67050
O47         O  0.14737140  0.85059378  0.18101449    -0.79340
C48         C  0.07952755  0.87848358  0.11420233     0.84100
O49         O  0.09839123  0.86555040  0.12294918    -0.66520
Ni50       Ni  0.24575090  0.85302588  0.16273108     1.27450
Ni51       Ni  0.21896811  0.88498734  0.10626526     1.26060
H52         H  0.15821622  0.87875195  0.07135552     0.38650
O53         O  0.11946761  0.51456423  0.09045636    -0.81310
O54         O  0.15175384  0.50645876  0.28233919    -0.66000
O55         O  0.15656123  0.50148836  0.16266092    -1.12600
C56         C  0.04665255  0.46446678  0.17825811     1.05580
O57         O  0.14404412  0.48025563  0.29221381    -0.79210
O58         O  0.14339854  0.46089006  0.22343436    -0.66790
Ni59       Ni  0.16591896  0.51926640  0.12608817     1.34870
C60         C  0.14599134  0.45944579  0.18361182     0.84320
O61         O  0.20164606  0.51942340  0.22580026    -0.79740
O62         O  0.21288780  0.52661466  0.15851387    -0.90020
C63         C  0.15593648  0.49398755  0.30493924     0.83890
O64         O  0.13480808  0.53459169  0.15544811    -0.68220
O65         O  0.06180005  0.46279293  0.21571033    -0.87510
C66         C  0.12136366  0.53491935  0.19275840     0.84720
C67         C  0.21916704  0.52831096  0.19839433     1.06290
H68         H  0.08315518  0.49801801  0.22469436     0.38090
O69         O  0.10658349  0.49157488  0.21767597    -1.10170
O70         O  0.13628271  0.47023652  0.15717559    -0.66820
Ni71       Ni  0.10622446  0.48945000  0.15765670     1.26350
O72         O  0.12075788  0.52305334  0.21777825    -0.67050
O73         O  0.05674539  0.47627581  0.15444399    -0.79340
C74         C  0.10523109  0.50147975  0.07607243     0.84100
O75         O  0.10737300  0.48859702  0.09709085    -0.66520
Ni76       Ni  0.10311295  0.47280657  0.25201970     1.27450
Ni77       Ni  0.15486482  0.50478207  0.22216609     1.26060
H78         H  0.17899499  0.49422336  0.15792973     0.38650
O79         O  0.06482004  0.51583049  0.02880799    -0.81310
O80         O  0.47892831  0.50866501  0.84777796    -0.66000
O81         O  0.01427088  0.50362157  0.96363123    -1.12600
C82         C  0.12101946  0.47146706  0.91795066     1.05580
O83         O  0.50984705  0.48746834  0.81945756    -0.79210
O84         O  0.01623090  0.46867706  0.88693819    -0.66790
Ni85       Ni  0.01521774  0.52182228  0.00058738     1.34870
C86         C  0.02176724  0.46486286  0.92541210     0.84320
O87         O  0.44558551  0.51624334  0.92079904    -0.79740
O88         O  0.46563918  0.53059386  0.97727781    -0.90020
C89         C  0.48241985  0.49830283  0.81854787     0.83890
O90         O  0.04615799  0.53458032  0.96395241    -0.68220
O91         O  0.09824572  0.46911851  0.88543055    -0.87510
C92         C  0.03760378  0.53733438  0.92544680     0.84720
C93         C  0.44082056  0.52784074  0.94680268     1.06290
H94         H  0.06789706  0.50640877  0.88277928     0.38090
O95         O  0.05070807  0.49804573  0.89348762    -1.10170
O96         O  0.04132887  0.47336289  0.95231746    -0.66820
Ni97       Ni  0.06582648  0.49406146  0.95190510     1.26350
O98         O  0.01795483  0.52783494  0.90133490    -0.67050
O99         O  0.11729348  0.48410328  0.94007757    -0.79340
C100        C  0.08139756  0.50242844  0.03654878     0.84100
O101        O  0.07864800  0.49077345  0.01094125    -0.66520
Ni102      Ni  0.05401775  0.48011564  0.85521249     1.27450
Ni103      Ni  0.99701256  0.50669179  0.90603683     1.26060
H104        H  0.99672271  0.49576032  0.97616792     0.38650
O105        O  0.32447612  0.51802824  0.60615759    -0.81310
O106        O  0.43453600  0.50994612  0.76822804    -0.66000
O107        O  0.39282866  0.50780991  0.65394079    -1.12600
C108        C  0.31439614  0.46428291  0.70695616     1.05580
O109        O  0.44312713  0.48366075  0.76874046    -0.79210
O110        O  0.41562856  0.46383142  0.70690766    -0.66790
Ni111      Ni  0.37698612  0.52662828  0.62341681     1.34870
C112        C  0.41056378  0.46454783  0.66707526     0.84320
O113        O  0.45224916  0.52607249  0.69775460    -0.79740
O114        O  0.42755013  0.53737123  0.63785408    -0.90020
C115        C  0.45164834  0.49747916  0.78346615     0.83890
O116        O  0.35183812  0.53789829  0.66825161    -0.68220
O117        O  0.34044776  0.46382939  0.73767469    -0.87510
C118        C  0.35560841  0.53707154  0.70826388     0.84720
C119        C  0.45291665  0.53690555  0.66913547     1.06290
H120        H  0.35228709  0.49837288  0.73862568     0.38090
O121        O  0.37353355  0.49360381  0.72196713    -1.10170
O122        O  0.38966115  0.47526777  0.64785008    -0.66820
Ni123      Ni  0.35257262  0.49178133  0.66526582     1.26350
O124        O  0.37590299  0.52619476  0.72769487    -0.67050
O125        O  0.31386551  0.47528427  0.67864515    -0.79340
C126        C  0.31510083  0.50420903  0.59187058     0.84100
O127        O  0.33100801  0.49161754  0.60783467    -0.66520
Ni128      Ni  0.39062701  0.47484029  0.75202330     1.27450
Ni129      Ni  0.41342994  0.50969682  0.71074322     1.26060
H130        H  0.41413986  0.50291870  0.63761283     0.38650
O131        O  0.26234291  0.51612413  0.55178222    -0.81310
O132        O  0.18202870  0.50743220  0.36674481    -0.66000
O133        O  0.21376004  0.50435911  0.48450437    -1.12600
C134        C  0.32400026  0.47312337  0.42744867     1.05580
O135        O  0.19523132  0.48174452  0.35849941    -0.79210
O136        O  0.23459471  0.46282787  0.41287510    -0.66790
Ni137      Ni  0.21637787  0.52337070  0.51801065     1.34870
C138        C  0.22792049  0.46259189  0.45218824     0.84320
O139        O  0.14684434  0.51788226  0.43758723    -0.79740
O140        O  0.17094551  0.53372302  0.48879402    -0.90020
C141        C  0.17891057  0.49463033  0.34529105     0.83890
O142        O  0.25266177  0.53289736  0.48013145    -0.68220
O143        O  0.30704899  0.47457992  0.39092965    -0.87510
C144        C  0.24351130  0.53572310  0.44166712     0.84720
C145        C  0.14594906  0.53106426  0.45823561     1.06290
H146        H  0.26659830  0.50434944  0.40439588     0.38090
O147        O  0.24842459  0.49639820  0.41547841    -1.10170
O148        O  0.23571467  0.47391090  0.47788551    -0.66820
Ni149      Ni  0.26452037  0.49336681  0.47299441     1.26350
O150        O  0.22183587  0.52652444  0.41893919    -0.67050
O151        O  0.31250409  0.48100380  0.45999775    -0.79340
C152        C  0.28411365  0.50360317  0.55686045     0.84100
O153        O  0.28126453  0.49162476  0.53195533    -0.66520
Ni154      Ni  0.25117514  0.47917993  0.37597506     1.27450
Ni155      Ni  0.19691297  0.50646368  0.42602425     1.26060
H156        H  0.19518748  0.49718700  0.49822015     0.38650
O157        O  0.29105400  0.35871835  0.58406380    -0.81310
O158        O  0.10667848  0.36717257  0.56351446    -0.66000
O159        O  0.22008049  0.36854270  0.55281236    -1.12600
C160        C  0.21909442  0.40855397  0.66079619     1.05580
O161        O  0.09789046  0.39256932  0.58033833    -0.79210
O162        O  0.16037245  0.41052445  0.57496690    -0.66790
Ni163      Ni  0.25169486  0.34952513  0.54748950     1.34870
C164        C  0.19219506  0.40987753  0.55338494     0.84320
O165        O  0.15748913  0.35573188  0.50809930    -0.79740
O166        O  0.21469644  0.34067293  0.50737742    -0.90020
C167        C  0.08703606  0.38012579  0.56015201     0.83890
O168        O  0.22666882  0.33726337  0.59233514    -0.68220
O169        O  0.18030672  0.40841981  0.65778965    -0.87510
C170        C  0.18933043  0.33677829  0.60297877     0.84720
C171        C  0.17980066  0.34473718  0.49284605     1.06290
H172        H  0.17211507  0.37292532  0.63503603     0.38090
O173        O  0.17409620  0.37977299  0.61048630    -1.10170
O174        O  0.22096958  0.40000560  0.56015447    -0.66820
Ni175      Ni  0.23096094  0.38288371  0.59892055     1.26350
O176        O  0.16373690  0.34755521  0.59145647    -0.67050
O177        O  0.24163148  0.39807546  0.64344162    -0.79340
C178        C  0.30471309  0.37211492  0.57180437     0.84100
O179        O  0.28645814  0.38477217  0.58289507    -0.66520
Ni180      Ni  0.14070861  0.39854657  0.61999736     1.27450
Ni181      Ni  0.16397843  0.36735335  0.55932463     1.26060
H182        H  0.22419882  0.37423425  0.52657755     0.38650
O183        O  0.16714007  0.60968409  0.80580042    -0.81310
O184        O  0.47744243  0.61576758  0.78587136    -0.66000
O185        O  0.09231402  0.62118207  0.77198575    -1.12600
C186        C  0.07392710  0.66051791  0.87780644     1.05580
O187        O  0.47126255  0.64151874  0.78191669    -0.79210
O188        O  0.03645132  0.66268716  0.77478717    -0.66790
Ni189      Ni  0.12528096  0.60192147  0.76882288     1.34870
C190        C  0.07503109  0.66386948  0.77095585     0.84320
O191        O  0.02814945  0.60313183  0.73082891    -0.79740
O192        O  0.08736333  0.59012281  0.73355806    -0.90020
C193        C  0.45794519  0.62825360  0.79519230     0.83890
O194        O  0.10402395  0.59255291  0.81753075    -0.68220
O195        O  0.04007222  0.66283346  0.85889891    -0.87510
C196        C  0.06839686  0.59267629  0.83164928     0.84720
C197        C  0.05023270  0.59113762  0.72190070     1.06290
H198        H  0.03267255  0.62797299  0.84816993     0.38090
O199        O  0.03984827  0.63323581  0.82209203    -1.10170
O200        O  0.10004277  0.65380139  0.78765380    -0.66820
Ni201      Ni  0.09674519  0.63473895  0.82263671     1.26350
O202        O  0.03985784  0.60134974  0.81660945    -0.67050
O203        O  0.09726186  0.64846963  0.87160645    -0.79340
C204        C  0.17626409  0.62194985  0.82736972     0.84100
O205        O  0.15486805  0.63464550  0.82663160    -0.66520
Ni206      Ni  0.00707427  0.65210464  0.81938557     1.27450
Ni207      Ni  0.03428743  0.61822492  0.77626722     1.26060
H208        H  0.09737465  0.62751789  0.74703174     0.38650
O209        O  0.29703021  0.38966965  0.00984814    -0.81310
O210        O  0.11282461  0.38364908  0.01635288    -0.66000
O211        O  0.22512933  0.38153089  0.03671307    -1.12600
C212        C  0.22366041  0.34326979  0.92376847     1.05580
O213        O  0.10718716  0.35821705  0.99817847    -0.79210
O214        O  0.16810578  0.33871474  0.99240755    -0.66790
Ni215      Ni  0.25855243  0.39944367  0.04509839     1.34870
C216        C  0.19085800  0.33965769  0.02498514     0.84320
O217        O  0.16232103  0.39458195  0.07692581    -0.79740
O218        O  0.22136420  0.40835829  0.08369800    -0.90020
C219        C  0.09536705  0.37026225  0.01943199     0.83890
O220        O  0.23589772  0.41262790  0.00012674    -0.68220
O221        O  0.18764658  0.34810730  0.91409744    -0.87510
C222        C  0.19895869  0.41424125  0.98759182     0.84720
C223        C  0.18568611  0.40468543  0.09528796     1.06290
H224        H  0.18380680  0.37931917  0.95076226     0.38090
O225        O  0.18205305  0.37186716  0.97407431    -1.10170
O226        O  0.21718481  0.35057868  0.03069294    -0.66820
Ni227      Ni  0.23626446  0.36672204  0.99277539     1.26350
O228        O  0.17160944  0.40391231  0.99546156    -0.67050
O229        O  0.24613889  0.35040751  0.95115990    -0.79340
C230        C  0.31005453  0.37631569  0.02407922     0.84100
O231        O  0.29019387  0.36365338  0.01535781    -0.66520
Ni232      Ni  0.14793184  0.35459349  0.95542781     1.27450
Ni233      Ni  0.16986731  0.38354159  0.02525364     1.26060
H234        H  0.22750937  0.37587464  0.06339133     0.38650
O235        O  0.35956733  0.38851634  0.07022408    -0.81310
O236        O  0.04194698  0.38032598  0.06125876    -0.66000
O237        O  0.42980369  0.37915368  0.03795651    -1.12600
C238        C  0.42557968  0.33361574  0.12627317     1.05580
O239        O  0.04936952  0.35410968  0.05752529    -0.79210
O240        O  0.48567399  0.33756378  0.03671405    -0.66790
Ni241      Ni  0.39791455  0.39828711  0.03506414     1.34870
C242        C  0.44989290  0.33767013  0.02184133     0.84320
O243        O  0.49466681  0.39564057  0.00757592    -0.79740
O244        O  0.43401289  0.40789314  0.99713980    -0.90020
C245        C  0.06091000  0.36821798  0.04826809     0.83890
O246        O  0.42392771  0.41065451  0.08047331    -0.68220
O247        O  0.46338611  0.33186566  0.11762411    -0.87510
C248        C  0.45968966  0.40999058  0.09728615     0.84720
C249        C  0.47174122  0.40617991  0.99036506     1.06290
H250        H  0.47769488  0.36878871  0.12093113     0.38090
O251        O  0.47431662  0.36431360  0.09283880    -1.10170
O252        O  0.42212616  0.34669231  0.03612281    -0.66820
Ni253      Ni  0.41742971  0.36295956  0.07900349     1.26350
O254        O  0.48321399  0.39791275  0.09184223    -0.67050
O255        O  0.40639098  0.34668397  0.11951471    -0.79340
C256        C  0.34395826  0.37579466  0.05505811     0.84100
O257        O  0.36155465  0.36261834  0.06232150    -0.66520
Ni258      Ni  0.50542077  0.34461689  0.08970457     1.27450
Ni259      Ni  0.48550519  0.38040465  0.05072153     1.26060
H260        H  0.42739471  0.37441510  0.01007241     0.38650
O261        O  0.21232633  0.64473373  0.29350555    -0.81310
O262        O  0.39516767  0.63551666  0.30484841    -0.66000
O263        O  0.28646863  0.63228719  0.26162158    -1.12600
C264        C  0.28255213  0.59376377  0.37019943     1.05580
O265        O  0.39915935  0.60959384  0.29342064    -0.79210
O266        O  0.33480533  0.58715661  0.28055062    -0.66790
Ni267      Ni  0.25375073  0.65125348  0.25322918     1.34870
C268        C  0.29851297  0.58698357  0.26494745     0.84320
O269        O  0.35364007  0.65199737  0.24473431    -0.79740
O270        O  0.29405672  0.66037404  0.21558306    -0.90020
C271        C  0.41434724  0.62236668  0.30913582     0.83890
O272        O  0.27503902  0.66427032  0.29718706    -0.68220
O273        O  0.31988681  0.59097884  0.36291192    -0.87510
C274        C  0.30278830  0.66231151  0.32495915     0.84720
C275        C  0.33251845  0.66183901  0.22237845     1.06290
H276        H  0.32768879  0.62331201  0.34950050     0.38090
O277        O  0.32663532  0.61867933  0.32142290    -1.10170
O278        O  0.27416962  0.59883905  0.26968367    -0.66820
Ni279      Ni  0.27185359  0.61774915  0.30595170     1.26350
O280        O  0.32739083  0.65049563  0.32502322    -0.67050
O281        O  0.26018803  0.60419600  0.35176519    -0.79340
C282        C  0.19926897  0.63108246  0.30502730     0.84100
O283        O  0.21615176  0.61845969  0.29239710    -0.66520
Ni284      Ni  0.35847288  0.59993321  0.32653919     1.27450
Ni285      Ni  0.34094083  0.63489425  0.28228585     1.26060
H286        H  0.28721560  0.62655293  0.23503350     0.38650
O287        O  0.15322796  0.64269589  0.35341521    -0.81310
O288        O  0.47149263  0.63434961  0.34370564    -0.66000
O289        O  0.08090718  0.62839018  0.38325902    -1.12600
C290        C  0.08198078  0.59235840  0.26979151     1.05580
O291        O  0.46537047  0.60826559  0.34862530    -0.79210
O292        O  0.02919489  0.58689626  0.36421461    -0.66790
Ni293      Ni  0.11399194  0.64648359  0.39773073     1.34870
C294        C  0.06613146  0.58592800  0.37730084     0.84320
O295        O  0.01518168  0.64798808  0.40792373    -0.79740
O296        O  0.07563234  0.65295530  0.44015561    -0.90020
C297        C  0.45158543  0.62168351  0.33557242     0.83890
O298        O  0.09036160  0.66167040  0.36078874    -0.68220
O299        O  0.04601132  0.58895424  0.28088477    -0.87510
C300        C  0.06493397  0.66033761  0.33061220     0.84720
C301        C  0.03734301  0.65545242  0.43507706     1.06290
H302        H  0.03551168  0.62250875  0.29489010     0.38090
O303        O  0.03832181  0.61717489  0.32199236    -1.10170
O304        O  0.09288232  0.59625432  0.36740101    -0.66820
Ni305      Ni  0.09394669  0.61585342  0.33425053     1.26350
O306        O  0.04081624  0.64859773  0.32672899    -0.67050
O307        O  0.10366885  0.60359279  0.28506674    -0.79340
C308        C  0.16638375  0.62998811  0.33608450     0.84100
O309        O  0.15064056  0.61658935  0.34416407    -0.66520
Ni310      Ni  0.00668670  0.59852616  0.31616242     1.27450
Ni311      Ni  0.02600120  0.63213852  0.36541528     1.26060
H312        H  0.08055227  0.62151273  0.40787563     0.38650
O313        O  0.34994108  0.36064366  0.52117260    -0.81310
O314        O  0.03382082  0.36867895  0.51856866    -0.66000
O315        O  0.42412143  0.36864264  0.54769549    -1.12600
C316        C  0.41421107  0.41403723  0.45543974     1.05580
O317        O  0.03653840  0.39498282  0.52234386    -0.79210
O318        O  0.47383927  0.41473050  0.52864477    -0.66790
Ni319      Ni  0.39255555  0.34988082  0.55063943     1.34870
C320        C  0.44720171  0.41244021  0.55631068     0.84320
O321        O  0.49201220  0.35328433  0.57591050    -0.79740
O322        O  0.43312375  0.33979049  0.58403499    -0.90020
C323        C  0.05106998  0.38121840  0.53166471     0.83890
O324        O  0.41331832  0.33844002  0.50160716    -0.68220
O325        O  0.45189865  0.41198776  0.44698151    -0.87510
C326        C  0.44901328  0.33834276  0.48594872     0.84720
C327        C  0.47037703  0.34251885  0.59270881     1.06290
H328        H  0.45953866  0.37805088  0.46229042     0.38090
O329        O  0.46152511  0.38327157  0.48958934    -1.10170
O330        O  0.42361978  0.40043002  0.55553194    -0.66820
Ni331      Ni  0.40796495  0.38578828  0.51103651     1.26350
O332        O  0.47425057  0.34970295  0.49296342    -0.67050
O333        O  0.39363589  0.40391458  0.47639041    -0.79340
C334        C  0.33692119  0.37311267  0.54007181     0.84100
O335        O  0.35504008  0.38632053  0.53482650    -0.66520
Ni336      Ni  0.49360539  0.40225225  0.48333534     1.27450
Ni337      Ni  0.47834264  0.36781984  0.53190013     1.26060
H338        H  0.42430022  0.37271441  0.57638252     0.38650
O339        O  0.22837822  0.60670142  0.86079044    -0.81310
O340        O  0.40698953  0.61425424  0.83237203    -0.66000
O341        O  0.30544193  0.61766711  0.88829943    -1.12600
C342        C  0.28985371  0.65964820  0.79128604     1.05580
O343        O  0.41551583  0.63966225  0.84866225    -0.79210
O344        O  0.35451579  0.66131845  0.87963719    -0.66790
Ni345      Ni  0.27306942  0.59910070  0.89685057     1.34870
C346        C  0.31934118  0.66168633  0.89659119     0.84320
O347        O  0.37203401  0.59590839  0.89303275    -0.79740
O348        O  0.31669632  0.58958394  0.93056170    -0.90020
C349        C  0.42601650  0.62732651  0.82741409     0.83890
O350        O  0.28987856  0.58616161  0.85072784    -0.68220
O351        O  0.32721671  0.66247217  0.79921220    -0.87510
C352        C  0.31361313  0.58840838  0.82024186     0.84720
C353        C  0.35281359  0.58663991  0.91792786     1.06290
H354        H  0.33621003  0.62913519  0.79910585     0.38090
O355        O  0.33850980  0.63263059  0.82826494    -1.10170
O356        O  0.29271744  0.65100330  0.88856647    -0.66820
Ni357      Ni  0.28568723  0.63347830  0.84868959     1.26350
O358        O  0.33556215  0.60085983  0.81739343    -0.67050
O359        O  0.26916960  0.64839449  0.80691558    -0.79340
C360        C  0.21331031  0.62059726  0.85399191     0.84100
O361        O  0.23157112  0.63288781  0.86685672    -0.66520
Ni362      Ni  0.37031577  0.65134294  0.82626895     1.27450
Ni363      Ni  0.35646131  0.61480007  0.86140636     1.26060
H364        H  0.31030913  0.62266457  0.91554836     0.38650
O365        O  0.05953318  0.73248489  0.12702035    -0.81310
O366        O  0.46536618  0.73907141  0.29822548    -0.66000
O367        O  0.49951498  0.74500528  0.18221463    -1.12600
C368        C  0.08543548  0.78426493  0.24077622     1.05580
O369        O  0.46021976  0.76519031  0.30582496    -0.79210
O370        O  0.47802122  0.78348011  0.23889344    -0.66790
Ni371      Ni  0.00474783  0.72711197  0.14434801     1.34870
C372        C  0.48973640  0.78571531  0.20134548     0.84320
O373        O  0.43955019  0.72687542  0.22404609    -0.79740
O374        O  0.45102778  0.71896039  0.15740695    -0.90020
C375        C  0.45385651  0.75117575  0.31960105     0.83890
O376        O  0.02768296  0.71270796  0.18428579    -0.68220
O377        O  0.05630864  0.78549200  0.26654784    -0.87510
C378        C  0.03116926  0.71291197  0.22430141     0.84720
C379        C  0.43172981  0.71798974  0.19212663     1.06290
H380        H  0.04517976  0.75018907  0.27091715     0.38090
O381        O  0.02500357  0.75573517  0.25363912    -1.10170
O382        O  0.51586024  0.77691818  0.18316922    -0.66820
Ni383      Ni  0.04616346  0.75799003  0.19754732     1.26350
O384        O  0.01796241  0.72397301  0.24811306    -0.67050
O385        O  0.08968084  0.77218821  0.21590766    -0.79340
C386        C  0.07668893  0.74576865  0.11918121     0.84100
O387        O  0.06806496  0.75840824  0.14028065    -0.66520
Ni388      Ni  0.00916883  0.77428089  0.28416105     1.27450
Ni389      Ni  0.48177182  0.74152744  0.23927203     1.26060
H390        H  0.47928176  0.75186973  0.16886607     0.38650
O391        O  0.12903549  0.73332454  0.07852995    -0.81310
O392        O  0.18953620  0.74167122  0.88520695    -0.66000
O393        O  0.17300148  0.74461618  0.00704001    -1.12600
C394        C  0.07235645  0.78285449  0.96302431     1.05580
O395        O  0.19373962  0.76769994  0.88677334    -0.79210
O396        O  0.17698563  0.78620713  0.95277483    -0.66790
Ni397      Ni  0.17260636  0.72563353  0.04188672     1.34870
C398        C  0.17026976  0.78674641  0.99205572     0.84320
O399        O  0.23014827  0.72819572  0.95220387    -0.79740
O400        O  0.21531080  0.71446117  0.01044463    -0.90020
C401        C  0.19410200  0.75489159  0.86560594     0.83890
O402        O  0.13346110  0.71537091  0.00758992    -0.68220
O403        O  0.09697874  0.78513217  0.93293236    -0.87510
C404        C  0.13164202  0.71444380  0.96752930     0.84720
C405        C  0.23526591  0.71600141  0.97620199     1.06290
H406        H  0.11515400  0.75034766  0.92630243     0.38090
O407        O  0.13657798  0.75604417  0.94119174    -1.10170
O408        O  0.15138846  0.77609171  0.01203801    -0.66820
Ni409      Ni  0.12261140  0.75714386  0.99926691     1.26350
O410        O  0.14939116  0.72385702  0.94203463    -0.67050
O411        O  0.07508659  0.77073526  0.98814482    -0.79340
C412        C  0.10686854  0.74579735  0.08382000     0.84100
O413        O  0.10744165  0.75749376  0.05815939    -0.66520
Ni414      Ni  0.14500675  0.77552827  0.91085801     1.27450
Ni415      Ni  0.18324998  0.74233442  0.94678944     1.26060
H416        H  0.19394915  0.75145352  0.01883330     0.38650
O417        O  0.26333504  0.73643058  0.60469966    -0.81310
O418        O  0.20376197  0.74421735  0.79538273    -0.66000
O419        O  0.22092252  0.74838700  0.67491734    -1.12600
C420        C  0.31780318  0.78693856  0.71759053     1.05580
O421        O  0.20258770  0.77029094  0.80336093    -0.79210
O422        O  0.21011370  0.78772740  0.72962942    -0.66790
Ni423      Ni  0.22242706  0.72899686  0.64188793     1.34870
C424        C  0.21578274  0.78846389  0.68981762     0.84320
O425        O  0.16237609  0.73262628  0.72830165    -0.79740
O426        O  0.18181474  0.71783792  0.67372871    -0.90020
C427        C  0.20099997  0.75631962  0.81928565     0.83890
O428        O  0.26359827  0.72014947  0.67698808    -0.68220
O429        O  0.29109184  0.78954534  0.74540137    -0.87510
C430        C  0.25952682  0.71790440  0.71629896     0.84720
C431        C  0.15998522  0.71989608  0.70609016     1.06290
H432        H  0.27778258  0.75371480  0.75695500     0.38090
O433        O  0.25663076  0.75951002  0.74164569    -1.10170
O434        O  0.24078832  0.77953953  0.67044031    -0.66820
Ni435      Ni  0.27135857  0.76060564  0.68333032     1.26350
O436        O  0.24237246  0.72777067  0.74067036    -0.67050
O437        O  0.31842710  0.77412232  0.69506819    -0.79340
C438        C  0.28676051  0.74817015  0.59878600     0.84100
O439        O  0.28825071  0.76012948  0.62411119    -0.66520
Ni440      Ni  0.24691105  0.77898134  0.77169055     1.27450
Ni441      Ni  0.20980096  0.74624689  0.73482544     1.26060
H442        H  0.19998717  0.75513146  0.66236360     0.38650
O443        O  0.32081350  0.73198697  0.54908146    -0.81310
O444        O  0.42177590  0.73723659  0.37887523    -0.66000
O445        O  0.38520376  0.74002886  0.49495433    -1.12600
C446        C  0.29819723  0.78119936  0.43777790     1.05580
O447        O  0.42156190  0.76355991  0.37687897    -0.79210
O448        O  0.38974524  0.78474294  0.43139807    -0.66790
Ni449      Ni  0.36863155  0.72167402  0.52559573     1.34870
C450        C  0.39540755  0.78382454  0.47121416     0.84320
O451        O  0.44550752  0.72242535  0.45299099    -0.79740
O452        O  0.41479191  0.70950104  0.50622844    -0.90020
C453        C  0.43078716  0.75024697  0.36001188     0.83890
O454        O  0.33584220  0.71253521  0.48153049    -0.68220
O455        O  0.31423114  0.77887759  0.40175545    -0.87510
C456        C  0.34298537  0.71157799  0.44220998     0.84720
C457        C  0.44286751  0.71065979  0.47891235     1.06290
H458        H  0.33716657  0.74653230  0.41265355     0.38090
O459        O  0.35918575  0.75241632  0.42593319    -1.10170
O460        O  0.38404095  0.77203879  0.49341644    -0.66820
Ni461      Ni  0.34426116  0.75587801  0.48332325     1.26350
O462        O  0.36863217  0.72023413  0.42331928    -0.67050
O463        O  0.30536358  0.77237569  0.47014042    -0.79340
C464        C  0.31424599  0.74629969  0.56173949     0.84100
O465        O  0.32924379  0.75812709  0.54222022    -0.66520
Ni466      Ni  0.36748099  0.77040761  0.39020877     1.27450
Ni467      Ni  0.40346628  0.73775309  0.43774987     1.26060
H468        H  0.40707699  0.74479936  0.51140261     0.38650
O469        O  0.34851985  0.89288284  0.60506044    -0.81310
O470        O  0.03242961  0.88059181  0.59242103    -0.66000
O471        O  0.42018678  0.88317906  0.57282245    -1.12600
C472        C  0.41807972  0.84089991  0.67560969     1.05580
O473        O  0.03224494  0.85420096  0.59372581    -0.79210
O474        O  0.46731060  0.83618001  0.59895371    -0.66790
Ni475      Ni  0.39076872  0.90266159  0.57350336     1.34870
C476        C  0.43945313  0.83833504  0.57139029     0.84320
O477        O  0.98640758  0.89687991  0.53733035    -0.79740
O478        O  0.42954747  0.91227541  0.53843245    -0.90020
C479        C  0.04656262  0.86730879  0.58041528     0.83890
O480        O  0.41780470  0.91293677  0.62200387    -0.68220
O481        O  0.45662789  0.84249724  0.68026613    -0.87510
C482        C  0.45573771  0.91275428  0.63245698     0.84720
C483        C  0.46484895  0.90881716  0.52517500     1.06290
H484        H  0.46398787  0.87479871  0.65560445     0.38090
O485        O  0.46294235  0.86884469  0.62933854    -1.10170
O486        O  0.41786739  0.85103730  0.56928592    -0.66820
Ni487      Ni  0.40737565  0.86688992  0.61246830     1.26350
O488        O  0.47943366  0.90146329  0.62090917    -0.67050
O489        O  0.39608899  0.84986296  0.65138950    -0.79340
C490        C  0.33257007  0.88008622  0.59013857     0.84100
O491        O  0.35201494  0.86690066  0.59303268    -0.66520
Ni492      Ni  0.49416152  0.84963415  0.63810887     1.27450
Ni493      Ni  0.47622518  0.88294415  0.58362783     1.26060
H494        H  0.41600150  0.87890901  0.54459821     0.38650
O495        O  0.27645411  0.89371767  0.55587230    -0.81310
O496        O  0.09405510  0.88016631  0.53853486    -0.66000
O497        O  0.20210653  0.88211688  0.57549907    -1.12600
C498        C  0.21878688  0.84166317  0.47058209     1.05580
O499        O  0.09476820  0.85396122  0.53765723    -0.79210
O500        O  0.16064515  0.83601695  0.54048828    -0.66790
Ni501      Ni  0.22938837  0.90157013  0.58454274     1.34870
C502        C  0.18419899  0.83842172  0.57200607     0.84320
O503        O  0.13061684  0.89330067  0.60466240    -0.79740
O504        O  0.18562388  0.90872409  0.61820142    -0.90020
C505        C  0.07911381  0.86710558  0.54964050     0.83890
O506        O  0.20715803  0.91393208  0.53640545    -0.68220
O507        O  0.18108723  0.84340048  0.46067671    -0.87510
C508        C  0.17165751  0.91345802  0.51875694     0.84720
C509        C  0.14971935  0.90383937  0.62584028     1.06290
H510        H  0.16889601  0.87552190  0.48601289     0.38090
O511        O  0.16762240  0.86910886  0.51144508    -1.10170
O512        O  0.20666263  0.85071222  0.57548127    -0.66820
Ni513      Ni  0.22099808  0.86713666  0.53541817     1.26350
O514        O  0.14829053  0.90149825  0.52382107    -0.67050
O515        O  0.23781989  0.85084760  0.49662848    -0.79340
C516        C  0.29247549  0.88043721  0.56818328     0.84100
O517        O  0.27396700  0.86728238  0.56140103    -0.66520
Ni518      Ni  0.13837911  0.84981910  0.49820849     1.27450
Ni519      Ni  0.14799121  0.88186135  0.55680890     1.26060
H520        H  0.20276946  0.87705703  0.60305886     0.38650
O521        O  0.25220069  0.23530565  0.04330567    -0.81310
O522        O  0.18306064  0.24271610  0.23255284    -0.66000
O523        O  0.20722192  0.24582064  0.11334345    -1.12600
C524        C  0.30937970  0.28275225  0.16221736     1.05580
O525        O  0.18557646  0.26902512  0.23875357    -0.79210
O526        O  0.20525182  0.28741666  0.17402768    -0.66790
Ni527      Ni  0.21156055  0.22646868  0.08082557     1.34870
C528        C  0.20645261  0.28738350  0.13401154     0.84320
O529        O  0.14694959  0.23015033  0.16346608    -0.79740
O530        O  0.17144233  0.21434632  0.11329442    -0.90020
C531        C  0.17517323  0.25547610  0.25289484     0.83890
O532        O  0.25349511  0.21877645  0.11729411    -0.68220
O533        O  0.28564988  0.28460339  0.19339414    -0.87510
C534        C  0.24741633  0.21566907  0.15595512     0.84720
C535        C  0.14741638  0.21668954  0.14419078     1.06290
H536        H  0.26281406  0.25001397  0.19526234     0.38090
O537        O  0.24205811  0.25642064  0.18116414    -1.10170
O538        O  0.22565321  0.27714067  0.11247454    -0.66820
Ni539      Ni  0.25669467  0.25836184  0.12299091     1.26350
O540        O  0.22599450  0.22447243  0.17996145    -0.67050
O541        O  0.30433655  0.27157398  0.13476960    -0.79340
C542        C  0.27262529  0.24811583  0.03787729     0.84100
O543        O  0.27157624  0.25963777  0.06406517    -0.66520
Ni544      Ni  0.23610296  0.27551415  0.21431606     1.27450
Ni545      Ni  0.19430256  0.24361160  0.17257388     1.26060
H546        H  0.18641326  0.25238341  0.09986547     0.38650
O547        O  0.06060398  0.23277627  0.57339926    -0.81310
O548        O  0.48273907  0.24047653  0.75799550    -0.66000
O549        O  0.01253716  0.24359486  0.64081402    -1.12600
C550        C  0.11016236  0.28163549  0.68140073     1.05580
O551        O  0.49926054  0.26531663  0.77660463    -0.79210
O552        O  0.50441123  0.28184907  0.70474275    -0.66790
Ni553      Ni  0.01858524  0.22423744  0.60867977     1.34870
C554        C  0.51135092  0.28444956  0.66608753     0.84320
O555        O  0.45035867  0.22900045  0.68696307    -0.79740
O556        O  0.47634255  0.21307996  0.63774843    -0.90020
C557        C  0.47865074  0.25262762  0.78186271     0.83890
O558        O  0.05792284  0.21528394  0.64712427    -0.68220
O559        O  0.08641020  0.28412072  0.71235955    -0.87510
C560        C  0.05327660  0.21374473  0.68683911     0.84720
C561        C  0.45016551  0.21596371  0.66595041     1.06290
H562        H  0.06810565  0.24682833  0.72325288     0.38090
O563        O  0.04772510  0.25354216  0.70959301    -1.10170
O564        O  0.03129835  0.27497952  0.64311316    -0.66820
Ni565      Ni  0.06116426  0.25581133  0.65061742     1.26350
O566        O  0.02890202  0.22224707  0.70839571    -0.67050
O567        O  0.10939428  0.26847031  0.66094131    -0.79340
C568        C  0.07414955  0.24666176  0.56517205     0.84100
O569        O  0.07205545  0.25808321  0.59131970    -0.66520
Ni570      Ni  0.04350049  0.27294290  0.74235628     1.27450
Ni571      Ni  0.49815839  0.24154303  0.69913771     1.26060
H572        H  0.49214537  0.25012570  0.62653556     0.38650
O573        O  0.11981018  0.23711725  0.51669218    -0.81310
O574        O  0.15564981  0.24388912  0.31873047    -0.66000
O575        O  0.14770921  0.24909888  0.43959550    -1.12600
C576        C  0.03312564  0.28259048  0.41162751     1.05580
O577        O  0.13288805  0.26821484  0.30189601    -0.79210
O578        O  0.13454151  0.28598385  0.37348516    -0.66790
Ni579      Ni  0.15641280  0.23043787  0.47441108     1.34870
C580        C  0.13266000  0.28887664  0.41284407     0.84320
O581        O  0.20543527  0.23521252  0.38154845    -0.79740
O582        O  0.19496724  0.22011307  0.43790829    -0.90020
C583        C  0.15258356  0.25551458  0.29306189     0.83890
O584        O  0.11277458  0.22017227  0.44668476    -0.68220
O585        O  0.05232957  0.28521037  0.37759109    -0.87510
C586        C  0.11410435  0.21654831  0.40793279     0.84720
C587        C  0.21351280  0.22270476  0.40369133     1.06290
H588        H  0.07905930  0.24872632  0.36731407     0.38090
O589        O  0.09910075  0.25633866  0.37726346    -1.10170
O590        O  0.11767345  0.27935924  0.43972994    -0.66820
Ni591      Ni  0.09328134  0.25878857  0.43757478     1.26350
O592        O  0.12750143  0.22574839  0.37942102    -0.67050
O593        O  0.04043925  0.26993943  0.43381875    -0.79340
C594        C  0.09554603  0.24842376  0.52479079     0.84100
O595        O  0.08761172  0.25976368  0.49873688    -0.66520
Ni596      Ni  0.09323596  0.27514511  0.34259366     1.27450
Ni597      Ni  0.15245568  0.24617584  0.37920383     1.26060
H598        H  0.16743535  0.25698653  0.44862031     0.38650
O599        O  0.32031385  0.23458476  0.99773930    -0.81310
O600        O  0.44120839  0.24239769  0.84153543    -0.66000
O601        O  0.38462116  0.24681436  0.94778050    -1.12600
C602        C  0.29605471  0.28270606  0.87897263     1.05580
O603        O  0.42364429  0.26584889  0.81291731    -0.79210
O604        O  0.40459081  0.28386024  0.88101255    -0.66790
Ni605      Ni  0.37294781  0.22788944  0.97947284     1.34870
C606        C  0.39291560  0.28641774  0.91853143     0.84320
O607        O  0.45833944  0.23269380  0.92031702    -0.79740
O608        O  0.42382052  0.21798187  0.96615213    -0.90020
C609        C  0.44597792  0.25338342  0.81411010     0.83890
O610        O  0.34689861  0.21787324  0.93297859    -0.68220
O611        O  0.32584059  0.28513155  0.85481704    -0.87510
C612        C  0.36324994  0.21476493  0.89802841     0.84720
C613        C  0.45501561  0.22036729  0.94394977     1.06290
H614        H  0.34913448  0.24774248  0.85460345     0.38090
O615        O  0.36514080  0.25514351  0.87143038    -1.10170
O616        O  0.36579610  0.27825879  0.93719430    -0.66820
Ni617      Ni  0.33836328  0.25828616  0.92516281     1.26350
O618        O  0.38933584  0.22377206  0.88097046    -0.67050
O619        O  0.29317532  0.27007336  0.90128076    -0.79340
C620        C  0.30296035  0.24795794  0.00303042     0.84100
O621        O  0.31193684  0.26011496  0.98037153    -0.66520
Ni622      Ni  0.37407894  0.27385739  0.83709322     1.27450
Ni623      Ni  0.41278663  0.24416727  0.89493074     1.26060
H624        H  0.40057785  0.25376634  0.96598253     0.38650
O625        O  0.26834422  0.01675476  0.05494410    -0.81310
O626        O  0.22382592  0.00744024  0.85846052    -0.66000
O627        O  0.23428885  0.00574849  0.97929801    -1.12600
C628        C  0.34391151  0.96799117  0.95554605     1.05580
O629        O  0.23630223  0.98150706  0.84977035    -0.79210
O630        O  0.24835991  0.96316638  0.91724853    -0.66790
Ni631      Ni  0.23486527  0.02543026  0.01047599     1.34870
C632        C  0.24275932  0.96297603  0.95667931     0.84320
O633        O  0.18057029  0.02096066  0.91915463    -0.79740
O634        O  0.20018705  0.03709707  0.97145966    -0.90020
C635        C  0.21800104  0.99436744  0.83873349     0.83890
O636        O  0.28144941  0.03288157  0.98211465    -0.68220
O637        O  0.32932740  0.96694602  0.91764938    -0.87510
C638        C  0.28395058  0.03435150  0.94218728     0.84720
C639        C  0.17858839  0.03438213  0.93849191     1.06290
H640        H  0.30131905  0.00145671  0.91146764     0.38090
O641        O  0.27911445  0.99474808  0.92006542    -1.10170
O642        O  0.25198196  0.97406389  0.98241563    -0.66820
Ni643      Ni  0.28368472  0.99277613  0.98039509     1.26350
O644        O  0.26244929  0.02628973  0.91566606    -0.67050
O645        O  0.33223763  0.97903794  0.98095363    -0.79340
C646        C  0.28347500  0.00336521  0.06610533     0.84100
O647        O  0.28635497  0.99153186  0.04114731    -0.66520
Ni648      Ni  0.28308374  0.97591023  0.88532314     1.27450
Ni649      Ni  0.22926109  0.00742595  0.91904585     1.26060
H650        H  0.21179328  0.99948966  0.98930882     0.38650
O651        O  0.31309237  0.01603986  0.12425552    -0.81310
O652        O  0.40738303  0.01175030  0.28935739    -0.66000
O653        O  0.37125894  0.00337472  0.17604283    -1.12600
C654        C  0.27192996  0.96972671  0.22964588     1.05580
O655        O  0.39207444  0.98753406  0.31388713    -0.79210
O656        O  0.37906808  0.96852028  0.24868506    -0.66790
Ni657      Ni  0.36943143  0.01969473  0.13426603     1.34870
C658        C  0.36929657  0.96436189  0.21143153     0.84320
O659        O  0.43452313  0.02107504  0.21405656    -0.79740
O660        O  0.42541478  0.02482162  0.14387211    -0.90020
C661        C  0.41354823  0.00016952  0.31495169     0.83890
O662        O  0.35448228  0.03711436  0.16868077    -0.68220
O663        O  0.29762926  0.96800929  0.26031798    -0.87510
C664        C  0.34843503  0.03827841  0.20793298     0.84720
C665        C  0.44395236  0.02773219  0.17889244     1.06290
H666        H  0.32034819  0.00447177  0.25983734     0.38090
O667        O  0.33940574  0.99709196  0.24730716    -1.10170
O668        O  0.34730877  0.97275518  0.18645119    -0.66820
Ni669      Ni  0.32123602  0.99304172  0.18994324     1.26350
O670        O  0.35734882  0.02753857  0.23503843    -0.67050
O671        O  0.27230328  0.98199260  0.20546856    -0.79340
C672        C  0.30131345  0.00288679  0.10893272     0.84100
O673        O  0.30534887  0.99026169  0.13098862    -0.66520
Ni674      Ni  0.34412739  0.97934307  0.28511969     1.27450
Ni675      Ni  0.38859156  0.00836674  0.23187217     1.26060
H676        H  0.38994551  0.99538663  0.16561972     0.38650
O677        O  0.11461186  0.01840385  0.60120240    -0.81310
O678        O  0.17795580  0.00600508  0.78262805    -0.66000
O679        O  0.16063680  0.00228319  0.66338512    -1.12600
C680        C  0.05635094  0.96600729  0.69695178     1.05580
O681        O  0.17527449  0.97969281  0.79132910    -0.79210
O682        O  0.16548629  0.96573750  0.71559406    -0.66790
Ni683      Ni  0.16764206  0.02028627  0.62697065     1.34870
C684        C  0.15157519  0.96163769  0.67979113     0.84320
O685        O  0.21513380  0.01889254  0.71867857    -0.79740
O686        O  0.22118915  0.02487014  0.65017654    -0.90020
C687        C  0.18852045  0.99345720  0.80256965     0.83890
O688        O  0.14600390  0.03557124  0.66399427    -0.68220
O689        O  0.08176422  0.96268516  0.72730280    -0.87510
C690        C  0.13405870  0.03522241  0.70186423     0.84720
C691        C  0.23039583  0.02720356  0.68916026     1.06290
H692        H  0.10048726  0.99786833  0.74135688     0.38090
O693        O  0.12165250  0.99190047  0.72740888    -1.10170
O694        O  0.13549060  0.97174921  0.65490070    -0.66820
Ni695      Ni  0.10916728  0.99144379  0.66754320     1.26350
O696        O  0.13533983  0.02298882  0.72560049    -0.67050
O697        O  0.05949718  0.97890055  0.67469036    -0.79340
C698        C  0.09551891  0.00618308  0.58808521     0.84100
O699        O  0.09701192  0.99288282  0.60777691    -0.66520
Ni700      Ni  0.12865989  0.97231098  0.75727351     1.27450
Ni701      Ni  0.16948315  0.00474327  0.72278550     1.26060
H702        H  0.18071783  0.99459992  0.65425156     0.38650
O703        O  0.06075943  0.02232925  0.53761901    -0.81310
O704        O  0.45268718  0.01233541  0.37061935    -0.66000
O705        O  0.99805451  0.01115034  0.48301318    -1.12600
C706        C  0.08496697  0.96916600  0.44186179     1.05580
O707        O  0.46870088  0.98756127  0.35024764    -0.79210
O708        O  0.47565251  0.97327473  0.42488214    -0.66790
Ni709      Ni  0.01210213  0.03103156  0.51021148     1.34870
C710        C  0.48748545  0.96961866  0.46184020     0.84320
O711        O  0.43151623  0.02618935  0.44224121    -0.79740
O712        O  0.46456401  0.04224425  0.48770000    -0.90020
C713        C  0.44743285  0.00033016  0.34665147     0.83890
O714        O  0.04327260  0.03932105  0.46455369    -0.68220
O715        O  0.05713881  0.96662936  0.41367210    -0.87510
C716        C  0.03001189  0.04047711  0.42655426     0.84720
C717        C  0.43472236  0.03948597  0.46232271     1.06290
H718        H  0.04265345  0.00494446  0.39731451     0.38090
O719        O  0.02328039  0.99884176  0.41321704    -1.10170
O720        O  0.01079005  0.97859315  0.48375751    -0.66820
Ni721      Ni  0.04258671  0.99708012  0.47115290     1.26350
O722        O  0.00491772  0.03070366  0.41013485    -0.67050
O723        O  0.08786267  0.98284349  0.45959004    -0.79340
C724        C  0.06981873  0.00817623  0.54989698     0.84100
O725        O  0.05900180  0.99599403  0.52905547    -0.66520
Ni726      Ni  0.01363421  0.97893747  0.38392677     1.27450
Ni727      Ni  0.47604968  0.01214784  0.42684480     1.26060
H728        H  0.47883536  0.00571113  0.50069305     0.38650
O729        O  0.15788429  0.10708154  0.27518398    -0.81310
O730        O  0.47086730  0.11534997  0.26917273    -0.66000
O731        O  0.08253920  0.11667706  0.23651704    -1.12600
C732        C  0.08290953  0.15816615  0.33885893     1.05580
O733        O  0.46898084  0.14111451  0.25716595    -0.79210
O734        O  0.03257901  0.16306132  0.24550752    -0.66790
Ni735      Ni  0.11572130  0.09757867  0.24033037     1.34870
C736        C  0.06760190  0.16220473  0.22857260     0.84320
O737        O  0.51461046  0.09692899  0.21554575    -0.79740
O738        O  0.07615565  0.08517734  0.20898620    -0.90020
C739        C  0.45401411  0.12887335  0.27484408     0.83890
O740        O  0.09617752  0.08914972  0.29162380    -0.68220
O741        O  0.04555071  0.16060114  0.32985991    -0.87510
C742        C  0.06303297  0.09095760  0.31057944     0.84720
C743        C  0.03743375  0.08516162  0.20512968     1.06290
H744        H  0.03892043  0.12801670  0.31822970     0.38090
O745        O  0.04008361  0.13216464  0.28968547    -1.10170
O746        O  0.09162910  0.15033311  0.23545982    -0.66820
Ni747      Ni  0.09526367  0.13312997  0.27731086     1.26350
O748        O  0.03500526  0.10044359  0.29798121    -0.67050
O749        O  0.10582627  0.14816669  0.32057194    -0.79340
C750        C  0.17034271  0.12120844  0.28179265     0.84100
O751        O  0.15134690  0.13308308  0.26690004    -0.66520
Ni752      Ni  0.00825128  0.15117449  0.29163911     1.27450
Ni753      Ni  0.02633318  0.11503201  0.25163572     1.26060
H754        H  0.08408313  0.12095777  0.20813930     0.38650
O755        O  0.23450424  0.13926561  0.78232299    -0.81310
O756        O  0.42742702  0.13101509  0.77706780    -0.66000
O757        O  0.31054609  0.12917961  0.75445980    -1.12600
C758        C  0.34106337  0.08640851  0.84831355     1.05580
O759        O  0.43429478  0.10653137  0.80681054    -0.79210
O760        O  0.35035836  0.08535260  0.74403502    -0.66790
Ni761      Ni  0.28034738  0.14885674  0.75735522     1.34870
C762        C  0.31188846  0.08562318  0.74456790     0.84320
O763        O  0.37766828  0.14805216  0.72294933    -0.79740
O764        O  0.32158766  0.16233892  0.73358540    -0.90020
C765        C  0.44517125  0.12114240  0.80312081     0.83890
O766        O  0.30000011  0.15291680  0.81248491    -0.68220
O767        O  0.37326305  0.08545287  0.82579545    -0.87510
C768        C  0.33689280  0.15404146  0.82395008     0.84720
C769        C  0.35747127  0.16098549  0.71991531     1.06290
H770        H  0.37116172  0.11650084  0.82508401     0.38090
O771        O  0.36195600  0.11362766  0.79679297    -1.10170
O772        O  0.29207770  0.09665875  0.76298448    -0.66820
Ni773      Ni  0.30718904  0.11371553  0.80153029     1.26350
O774        O  0.36537201  0.14599683  0.80717084    -0.67050
O775        O  0.31288512  0.09728387  0.84460058    -0.79340
C776        C  0.22822892  0.12833461  0.80920209     0.84100
O777        O  0.25093124  0.11610839  0.81411894    -0.66520
Ni778      Ni  0.39140022  0.09641912  0.77638508     1.27450
Ni779      Ni  0.36947202  0.13079746  0.76152154     1.26060
H780        H  0.30429120  0.12398262  0.72776982     0.38650
O781        O  0.21852023  0.11131595  0.33051361    -0.81310
O782        O  0.40438631  0.11792151  0.31928238    -0.66000
O783        O  0.29487716  0.12428868  0.35445284    -1.12600
C784        C  0.29418338  0.15872129  0.23499077     1.05580
O785        O  0.40995278  0.14404019  0.32031614    -0.79210
O786        O  0.34472349  0.16663938  0.33056839    -0.66790
Ni787      Ni  0.26223226  0.10605240  0.36941812     1.34870
C788        C  0.30718688  0.16755968  0.34086966     0.84320
O789        O  0.36326227  0.10459435  0.38226744    -0.79740
O790        O  0.30311584  0.09707381  0.40763594    -0.90020
C791        C  0.42262197  0.13041712  0.30748330     0.83890
O792        O  0.27986311  0.09244302  0.32623252    -0.68220
O793        O  0.32987956  0.16240452  0.24761407    -0.87510
C794        C  0.30828623  0.09300867  0.30003802     0.84720
C795        C  0.34155300  0.09537531  0.40462508     1.06290
H796        H  0.34018020  0.12907326  0.26716298     0.38090
O797        O  0.33732375  0.13482788  0.29354171    -1.10170
O798        O  0.28204130  0.15640702  0.33239524    -0.66820
Ni799      Ni  0.28178899  0.13621532  0.30263193     1.26350
O800        O  0.33611976  0.10346257  0.30109511    -0.67050
O801        O  0.27270306  0.14762471  0.25085283    -0.79340
C802        C  0.20635891  0.12330620  0.30907436     0.84100
O803        O  0.22500467  0.13642049  0.30988471    -0.66520
Ni804      Ni  0.36864313  0.15355714  0.28592007     1.27450
Ni805      Ni  0.35037448  0.12034546  0.33904712     1.26060
H806        H  0.29498951  0.13156291  0.37827903     0.38650
O807        O  0.18096056  0.14505982  0.84276362    -0.81310
O808        O  0.49534681  0.13969579  0.82959952    -0.66000
O809        O  0.10456734  0.13657925  0.87273690    -1.12600
C810        C  0.10374000  0.09486321  0.77091940     1.05580
O811        O  0.49770519  0.11497215  0.85144997    -0.79210
O812        O  0.05593367  0.09009689  0.85425821    -0.66790
Ni813      Ni  0.13942489  0.15458373  0.87797522     1.34870
C814        C  0.08966798  0.09094476  0.87454152     0.84320
O815        O  0.03824638  0.15695301  0.88840474    -0.79740
O816        O  0.09942150  0.16624281  0.91077316    -0.90020
C817        C  0.47903459  0.12597339  0.83115743     0.83890
O818        O  0.12178428  0.16591864  0.82939773    -0.68220
O819        O  0.06503572  0.09506733  0.77245140    -0.87510
C820        C  0.09180767  0.16479161  0.80396679     0.84720
C821        C  0.06041727  0.16700201  0.90870226     1.06290
H822        H  0.06512871  0.12651457  0.78599749     0.38090
O823        O  0.06465076  0.12240246  0.81462309    -1.10170
O824        O  0.11006913  0.10383397  0.87541226    -0.66820
Ni825      Ni  0.11814910  0.12000798  0.83298978     1.26350
O826        O  0.06370991  0.15448200  0.80765761    -0.67050
O827        O  0.12807050  0.10363218  0.79260934    -0.79340
C828        C  0.19288284  0.13073619  0.83596435     0.84100
O829        O  0.17326419  0.11898856  0.84929684    -0.66520
Ni830      Ni  0.03090796  0.10437741  0.81272808     1.27450
Ni831      Ni  0.05032477  0.13945615  0.85168000     1.26060
H832        H  0.10292742  0.13193185  0.90069597     0.38650
C833        C  0.40537967  0.05308157  0.45291195    -0.05880
C834        C  0.37956270  0.05236604  0.41689296    -0.33310
C835        C  0.35811888  0.06598077  0.40218070     0.35940
C836        C  0.36129138  0.08079101  0.42362873    -0.06240
C837        C  0.38573626  0.08150452  0.46045938    -0.33210
C838        C  0.40721902  0.06785731  0.47538208     0.35840
H839        H  0.37767974  0.04144408  0.39843762     0.16210
O840        O  0.33542167  0.06485005  0.36540884    -0.60710
H841        H  0.38880372  0.09274352  0.47733679     0.16230
O842        O  0.43113341  0.06935639  0.51123161    -0.60800
H843        H  0.41361943  0.06600057  0.53484130     0.43230
H844        H  0.35534029  0.06564230  0.34229026     0.43180
C845        C  0.03924269  0.05460875  0.40089424    -0.05880
C846        C  0.07834041  0.06115430  0.40000580    -0.33310
C847        C  0.08648079  0.07386922  0.37243872     0.35940
C848        C  0.05497177  0.08029367  0.34637266    -0.06240
C849        C  0.01539708  0.07458405  0.35019845    -0.33210
C850        C  0.00749454  0.06172055  0.37648323     0.35840
H851        H  0.10275624  0.05600965  0.41922561     0.16210
O852        O  0.12540623  0.07957401  0.37022482    -0.60710
H853        H  0.49076709  0.07936439  0.33055469     0.16230
O854        O  0.46835206  0.05616552  0.37807196    -0.60800
H855        H  0.46439175  0.04963218  0.35205591     0.43230
H856        H  0.12601925  0.08911240  0.38895564     0.43180
C857        C  0.12349696  0.05040955  0.72017183    -0.05880
C858        C  0.10817774  0.06250327  0.69336353    -0.33310
C859        C  0.10608113  0.07811619  0.70781641     0.35940
C860        C  0.12029312  0.08160014  0.74884685    -0.06240
C861        C  0.13715208  0.06972204  0.77496314    -0.33210
C862        C  0.13730509  0.05401292  0.76154003     0.35840
H863        H  0.09796206  0.05981328  0.66127455     0.16210
O864        O  0.08792352  0.08969146  0.68293886    -0.60710
H865        H  0.14654844  0.07237153  0.80737042     0.16230
O866        O  0.15196988  0.04239452  0.78865383    -0.60800
H867        H  0.12857945  0.03943121  0.80636446     0.43230
H868        H  0.11063981  0.09513299  0.66869778     0.43180
C869        C  0.25471836  0.04157457  0.70230580    -0.05880
C870        C  0.24536879  0.04881728  0.74127697    -0.33310
C871        C  0.26163963  0.06360946  0.75343043     0.35940
C872        C  0.28968763  0.07141533  0.72750409    -0.06240
C873        C  0.30026813  0.06409057  0.68892482    -0.33210
C874        C  0.28217344  0.04953379  0.67572843     0.35840
H875        H  0.22427470  0.04318576  0.76237568     0.16210
O876        O  0.25031622  0.07025157  0.79128651    -0.60710
H877        H  0.32236616  0.06973150  0.66884275     0.16230
O878        O  0.29162566  0.04324180  0.63698950    -0.60800
H879        H  0.31500358  0.03594211  0.64263624     0.43230
H880        H  0.26355791  0.06356874  0.81361777     0.43180
C881        C  0.33154876  0.05307138  0.22325931    -0.05880
C882        C  0.29928546  0.05242092  0.25116681    -0.33310
C883        C  0.28801052  0.06599813  0.27332558     0.35940
C884        C  0.31064897  0.08021486  0.26865010    -0.06240
C885        C  0.34005212  0.08117810  0.23713644    -0.33210
C886        C  0.35042685  0.06764673  0.21416734     0.35840
H887        H  0.28420029  0.04117092  0.25733681     0.16210
O888        O  0.25767193  0.06470634  0.30235857    -0.60710
H889        H  0.35700379  0.09209263  0.23224774     0.16230
O890        O  0.38205844  0.06836163  0.18655611    -0.60800
H891        H  0.36986495  0.07254473  0.15974356     0.43230
H892        H  0.23236591  0.06779098  0.28671782     0.43180
C893        C  0.51819955  0.06971542  0.19378597    -0.05880
C894        C  0.49398017  0.06788362  0.15718815    -0.33310
C895        C  0.47287415  0.05351140  0.14960126     0.35940
C896        C  0.47460720  0.04087167  0.17980839    -0.06240
C897        C  0.50033914  0.04262985  0.21549312    -0.33210
C898        C  0.02233846  0.05673769  0.22223150     0.35840
H899        H  0.49084019  0.07768156  0.13483746     0.16210
O900        O  0.44942982  0.05224590  0.11330177    -0.60710
H901        H  0.50214112  0.03329990  0.23933634     0.16230
O902        O  0.04546715  0.05819696  0.25866450    -0.60800
H903        H  0.07260085  0.05384396  0.25149914     0.43230
H904        H  0.42375791  0.05801184  0.11932288     0.43180
C905        C  0.15388598  0.04832812  0.92173481    -0.05880
C906        C  0.11362363  0.04697554  0.90611713    -0.33310
C907        C  0.09099989  0.06073117  0.89302073     0.35940
C908        C  0.10862467  0.07622743  0.89489803    -0.06240
C909        C  0.14881805  0.07732151  0.91060474    -0.33210
C910        C  0.17107079  0.06379133  0.92359721     0.35840
H911        H  0.09949978  0.03530419  0.90449867     0.16210
O912        O  0.05210735  0.05876907  0.87756733    -0.60710
H913        H  0.16412368  0.08877030  0.91162226     0.16230
O914        O  0.21078830  0.06580698  0.93642094    -0.60800
H915        H  0.20934209  0.06989940  0.96586886     0.43230
H916        H  0.03448897  0.06002622  0.90252759     0.43180
C917        C  0.30973470  0.04685875  0.92482612    -0.05880
C918        C  0.32508346  0.04444701  0.88429093    -0.33310
C919        C  0.33798079  0.05732601  0.86044839     0.35940
C920        C  0.33482162  0.07295827  0.87685829    -0.06240
C921        C  0.32328805  0.07532117  0.91885302    -0.33210
C922        C  0.31144332  0.06221812  0.94344213     0.35840
H923        H  0.32431802  0.03266948  0.86982407     0.16210
O924        O  0.34913551  0.05469874  0.81929992    -0.60710
H925        H  0.32224684  0.08729827  0.93202006     0.16230
O926        O  0.29994914  0.06452033  0.98468842    -0.60800
H927        H  0.27898769  0.07310015  0.98411018     0.43230
H928        H  0.37825114  0.05155694  0.82109891     0.43180
C929        C  0.35593060  0.19902033  0.87979806    -0.05880
C930        C  0.38893997  0.19079344  0.86245281    -0.33310
C931        C  0.38494495  0.17499405  0.84929402     0.35940
C932        C  0.34700059  0.16734319  0.85240416    -0.06240
C933        C  0.31486073  0.17528217  0.87257288    -0.33210
C934        C  0.31894711  0.19108553  0.88568822     0.35840
H935        H  0.41820653  0.19656639  0.85954506     0.16210
O936        O  0.41740612  0.16765932  0.83051240    -0.60710
H937        H  0.28543120  0.16963588  0.87535955     0.16230
O938        O  0.28629848  0.19879948  0.90308187    -0.60800
H939        H  0.27216498  0.20421347  0.87894462     0.43230
H940        H  0.43294101  0.16250075  0.85411694     0.43180
C941        C  0.48565332  0.20709268  0.94289702    -0.05880
C942        C  0.52580055  0.20966919  0.93007837    -0.33310
C943        C  0.05244694  0.19666493  0.92325024     0.35940
C944        C  0.03870813  0.18076609  0.92800174    -0.06240
C945        C  0.49946505  0.17829029  0.94297917    -0.33210
C946        C  0.47322850  0.19112224  0.95063227     0.35840
H947        H  0.53610633  0.22172414  0.92387749     0.16210
O948        O  0.09047181  0.19961462  0.90813312    -0.60710
H949        H  0.48806724  0.16621387  0.94641480     0.16230
O950        O  0.43404418  0.18768440  0.96159866    -0.60800
H951        H  0.43511532  0.18613645  0.99277244     0.43230
H952        H  0.10820588  0.20070350  0.93374598     0.43180
C953        C  0.10905886  0.20004409  0.39651006    -0.05880
C954        C  0.13696817  0.19371124  0.36783306    -0.33310
C955        C  0.13351455  0.17812636  0.35427197     0.35940
C956        C  0.10095734  0.16905474  0.36860508    -0.06240
C957        C  0.07688026  0.17449590  0.40195451    -0.33210
C958        C  0.08096945  0.19011575  0.41625543     0.35840
H959        H  0.16059039  0.20103484  0.35443383     0.16210
O960        O  0.15829945  0.17268951  0.32275087    -0.60710
H961        H  0.05194604  0.16730939  0.41320509     0.16230
O962        O  0.05499567  0.19596866  0.44610690    -0.60800
H963        H  0.06739955  0.19281777  0.47380089     0.43230
H964        H  0.14600733  0.17684504  0.29591667     0.43180
C965        C  0.28974335  0.18235833  0.36146517    -0.05880
C966        C  0.29452960  0.19772179  0.34336347    -0.33310
C967        C  0.27096828  0.21112080  0.35665339     0.35940
C968        C  0.24239500  0.20952837  0.38937561    -0.06240
C969        C  0.23884340  0.19419331  0.40798135    -0.33210
C970        C  0.26115317  0.18084412  0.39391314     0.35840
H971        H  0.31498632  0.19917173  0.31715228     0.16210
O972        O  0.27529007  0.22550942  0.33641518    -0.60710
H973        H  0.21696258  0.19220547  0.43263634     0.16230
O974        O  0.25417697  0.16616783  0.41185350    -0.60800
H975        H  0.22864361  0.16228487  0.39819319     0.43230
H976        H  0.29634033  0.23130301  0.35320387     0.43180
C977        C  0.42129152  0.20277292  0.67613052    -0.05880
C978        C  0.42627944  0.18777321  0.65611327    -0.33310
C979        C  0.40499676  0.17423230  0.66916676     0.35940
C980        C  0.37715267  0.17541273  0.70223674    -0.06240
C981        C  0.37027420  0.19049772  0.72085171    -0.33210
C982        C  0.39217138  0.20406002  0.70831506     0.35840
H983        H  0.44809065  0.18626608  0.63111701     0.16210
O984        O  0.41244306  0.15979985  0.64996713    -0.60710
H985        H  0.34918583  0.19164113  0.74668017     0.16230
O986        O  0.38615896  0.21825062  0.72921323    -0.60800
H987        H  0.36406290  0.22377208  0.71301053     0.43230
H988        H  0.39183455  0.15903534  0.62668937     0.43180
C989        C  0.07391964  0.20081502  0.70972785    -0.05880
C990        C  0.09331460  0.20455171  0.74821392    -0.33310
C991        C  0.10122383  0.19267867  0.77817763     0.35940
C992        C  0.08897011  0.17677861  0.77000549    -0.06240
C993        C  0.07195461  0.17283586  0.73029044    -0.33210
C994        C  0.06461818  0.18479050  0.69996252     0.35840
H995        H  0.09963337  0.21692169  0.75631516     0.16210
O996        O  0.11699705  0.19707269  0.81702837    -0.60710
H997        H  0.06289230  0.16063715  0.72344195     0.16230
O998        O  0.04528178  0.18094185  0.66243090    -0.60800
H999        H  0.01594385  0.18059261  0.66905414     0.43230
H1000       H  0.14683719  0.19755684  0.81324103     0.43180
C1001       C  0.12228370  0.20272056  0.16058037    -0.05880
C1002       C  0.09117230  0.20517026  0.19017488    -0.33310
C1003       C  0.07155718  0.19220351  0.21035057     0.35940
C1004       C  0.08277216  0.17608755  0.20189405    -0.06240
C1005       C  0.11320024  0.17363330  0.17166694    -0.33210
C1006       C  0.13225039  0.18654717  0.15090382     0.35840
H1007       H  0.08274467  0.21727124  0.19888345     0.16210
O1008       O  0.04290817  0.19555704  0.24014784    -0.60710
H1009       H  0.12317997  0.16154622  0.16470737     0.16230
O1010       O  0.16270347  0.18308614  0.12321207    -0.60800
H1011       H  0.14873228  0.18142325  0.09542955     0.43230
H1012       H  0.05833943  0.19643286  0.26738513     0.43180
C1013       C  0.25866508  0.19990213  0.17186740    -0.05880
C1014       C  0.23152717  0.19244758  0.19934929    -0.33310
C1015       C  0.23978298  0.17731398  0.21525765     0.35940
C1016       C  0.27603144  0.16961491  0.20433500    -0.06240
C1017       C  0.30123931  0.17632389  0.17363983    -0.33210
C1018       C  0.29249190  0.19142690  0.15700305     0.35840
H1019       H  0.20408364  0.19849726  0.20937056     0.16210
O1020       O  0.21460021  0.17096198  0.24500331    -0.60710
H1021       H  0.32952380  0.17046040  0.16544572     0.16230
O1022       O  0.31874711  0.19827514  0.12911397    -0.60800
H1023       H  0.31098847  0.19382912  0.10096099     0.43230
H1024       H  0.22434111  0.17541484  0.27252033     0.43180
C1025       C  0.12788746  0.91290005  0.65670999    -0.05880
C1026       C  0.10362102  0.92427677  0.63637451    -0.33310
C1027       C  0.11406886  0.94026914  0.64032734     0.35940
C1028       C  0.14315050  0.94479210  0.67179494    -0.06240
C1029       C  0.15862988  0.93321278  0.70020169    -0.33210
C1030       C  0.15028571  0.91713377  0.69321126     0.35840
H1031       H  0.08448769  0.92073446  0.60981620     0.16210
O1032       O  0.09867271  0.95103384  0.61104428    -0.60710
H1033       H  0.17894264  0.93648607  0.72620077     0.16230
O1034       O  0.17168632  0.90571978  0.71569120    -0.60800
H1035       H  0.15246147  0.90173883  0.73704162     0.43230
H1036       H  0.06864934  0.95011846  0.61162117     0.43180
C1037       C  0.15462881  0.92768947  0.49346050    -0.05880
C1038       C  0.16639169  0.94353816  0.50317437    -0.33310
C1039       C  0.14540240  0.95706696  0.48582472     0.35940
C1040       C  0.11207406  0.95520939  0.45689891    -0.06240
C1041       C  0.10164424  0.93933829  0.44584864    -0.33210
C1042       C  0.12204934  0.92587613  0.46368917     0.35840
H1043       H  0.19070376  0.94552410  0.52620454     0.16210
O1044       O  0.15747811  0.97207217  0.49818103    -0.60710
H1045       H  0.07611221  0.93722311  0.42440172     0.16230
O1046       O  0.10863704  0.91089671  0.45267457    -0.60800
H1047       H  0.12605530  0.90750651  0.42894120     0.43230
H1048       H  0.14401179  0.97400401  0.52560388     0.43180
C1049       C  0.48190022  0.92085430  0.49842970    -0.05880
C1050       C  0.45749021  0.92623348  0.46446744    -0.33310
C1051       C  0.45746474  0.94230710  0.45313904     0.35940
C1052       C  0.48260009  0.95308820  0.47580646    -0.06240
C1053       C  0.50969355  0.94720256  0.50723404    -0.33210
C1054       C  0.51003162  0.93111922  0.51784495     0.35840
H1055       H  0.43526085  0.91831815  0.44986548     0.16210
O1056       O  0.43201866  0.94735360  0.42077708    -0.60710
H1057       H  0.53083534  0.95503045  0.52380232     0.16230
O1058       O  0.53405793  0.92598479  0.55114197    -0.60800
H1059       H  0.55832785  0.92117180  0.53783399     0.43230
H1060       H  0.40645523  0.95060174  0.43466637     0.43180
C1061       C  0.47504826  0.92679542  0.65573381    -0.05880
C1062       C  0.46782946  0.94265411  0.64170620    -0.33310
C1063       C  0.49248763  0.95565400  0.65567195     0.35940
C1064       C  0.02475860  0.95324763  0.68551564    -0.06240
C1065       C  0.03003146  0.93749301  0.70140109    -0.33210
C1066       C  0.00653333  0.92447402  0.68625080     0.35840
H1067       H  0.44459973  0.94486231  0.61755322     0.16210
O1068       O  0.48524670  0.97057828  0.63898965    -0.60710
H1069       H  0.05441521  0.93492708  0.72400904     0.16230
O1070       O  0.01516447  0.90937656  0.70115999    -0.60800
H1071       H  0.03894051  0.90566609  0.68487122     0.43230
H1072       H  0.49925005  0.97062038  0.61141322     0.43180
C1073       C  0.41282160  0.79769274  0.49343809    -0.05880
C1074       C  0.40484970  0.81317641  0.47758184    -0.33310
C1075       C  0.41357250  0.82670428  0.50220885     0.35940
C1076       C  0.43135717  0.82479027  0.54275835    -0.06240
C1077       C  0.44119549  0.80931461  0.55746996    -0.33210
C1078       C  0.43205005  0.79587070  0.53330618     0.35840
H1079       H  0.38975828  0.81479329  0.44702270     0.16210
O1080       O  0.40480451  0.84164698  0.48634624    -0.60710
H1081       H  0.45487459  0.80751588  0.58864659     0.16230
O1082       O  0.44062141  0.78099078  0.54975734    -0.60800
H1083       H  0.46754163  0.77802885  0.53837080     0.43230
H1084       H  0.37551296  0.84339960  0.49185976     0.43180
C1085       C  0.27539596  0.79623993  0.44488488    -0.05880
C1086       C  0.24828077  0.80277823  0.41437294    -0.33310
C1087       C  0.23000401  0.81788397  0.42098986     0.35940
C1088       C  0.24042779  0.82690148  0.45746738    -0.06240
C1089       C  0.26854493  0.82042180  0.48688421    -0.33210
C1090       C  0.28523774  0.80528070  0.48136752     0.35840
H1091       H  0.24095329  0.79611603  0.38579115     0.15250
O1092       O  0.20201614  0.82362083  0.39192347    -0.60710
H1093       H  0.27662204  0.82683909  0.51568887     0.16230
O1094       O  0.31282501  0.79974064  0.51121879    -0.60800
H1095       H  0.29623842  0.79524081  0.53424306     0.43230
H1096       H  0.21798382  0.82994332  0.37156629     0.43180
C1097       C  0.34633318  0.80047235  0.71047397    -0.05880
C1098       C  0.38706349  0.79812698  0.69921910    -0.33310
C1099       C  0.41260979  0.81135945  0.69209698     0.35940
C1100       C  0.39725188  0.82718294  0.69543592    -0.06240
C1101       C  0.35720451  0.82941100  0.70817680    -0.33210
C1102       C  0.33190569  0.81639254  0.71534921     0.35840
H1103       H  0.39891679  0.78609452  0.69541367     0.16210
O1104       O  0.45143438  0.80867203  0.67859163    -0.60710
H1105       H  0.34451684  0.84139810  0.71007844     0.16230
O1106       O  0.29204782  0.81947269  0.72462022    -0.60800
H1107       H  0.27892773  0.82222495  0.69699657     0.43230
H1108       H  0.46844160  0.80814069  0.70486614     0.43180
C1109       C  0.18595037  0.82591502  0.60493836    -0.05880
C1110       C  0.17966713  0.80995498  0.59264044    -0.33310
C1111       C  0.18467176  0.79754308  0.62172012     0.35940
C1112       C  0.19579038  0.80095450  0.66404854    -0.06240
C1113       C  0.19769860  0.81694513  0.67753261    -0.33210
C1114       C  0.19372834  0.82944381  0.64802953     0.35840
H1115       H  0.17299910  0.80698349  0.55979266     0.16210
O1116       O  0.18168482  0.78202585  0.60774609    -0.60710
H1117       H  0.20581391  0.81972938  0.71015049     0.16230
O1118       O  0.19789308  0.84497820  0.66148860    -0.60800
H1119       H  0.22764037  0.84688382  0.66285053     0.43230
H1120       H  0.15391367  0.77860178  0.61526122     0.43180
C1121       C  0.26998555  0.67125608  0.76530265    -0.05880
C1122       C  0.28786057  0.67461369  0.72646167    -0.33310
C1123       C  0.28620891  0.69002690  0.71028224     0.35940
C1124       C  0.26661757  0.70205644  0.73358727    -0.06240
C1125       C  0.24598502  0.69810137  0.77091006    -0.33210
C1126       C  0.24690326  0.68269420  0.78630747     0.35840
H1127       H  0.30647582  0.66567814  0.71097566     0.16210
O1128       O  0.30574798  0.69336494  0.67330411    -0.60710
H1129       H  0.22897350  0.70692834  0.78859496     0.16230
O1130       O  0.23026353  0.67950439  0.82497957    -0.60800
H1131       H  0.20264866  0.67537507  0.81833423     0.43230
H1132       H  0.28697801  0.68972496  0.65030823     0.43180
C1133       C  0.30604321  0.67576111  0.92372276    -0.05880
C1134       C  0.27836873  0.67345212  0.95673958    -0.33310
C1135       C  0.25779177  0.68641242  0.97608904     0.35940
C1136       C  0.26320533  0.70240292  0.96200915    -0.06240
C1137       C  0.29210587  0.70476886  0.93003717    -0.33210
C1138       C  0.31336858  0.69178307  0.91132915     0.35840
H1139       H  0.27126604  0.66137373  0.96656749     0.16210
O1140       O  0.22987854  0.68304153  0.00650467    -0.60710
H1141       H  0.29716508  0.71673933  0.91811607     0.16230
O1142       O  0.33912400  0.69487968  0.87869185    -0.60800
H1143       H  0.32167291  0.69477153  0.85267791     0.43230
H1144       H  0.24569646  0.68272943  0.03358610     0.43180
C1145       C  0.48963891  0.33106212  0.62002525    -0.05880
C1146       C  0.01962557  0.32173775  0.60158387    -0.33310
C1147       C  0.02549106  0.30616264  0.61494683     0.35940
C1148       C  0.50228347  0.30014781  0.64876933    -0.06240
C1149       C  0.47519560  0.31020915  0.66994291    -0.33210
C1150       C  0.46879713  0.32570159  0.65565758     0.35840
H1151       H  0.03527941  0.32587179  0.57369056     0.16210
O1152       O  0.05397164  0.29701447  0.59462872    -0.60710
H1153       H  0.45828009  0.30595737  0.69681143     0.16230
O1154       O  0.43938454  0.33500667  0.67389094    -0.60800
H1155       H  0.45435436  0.34220748  0.69363871     0.43230
H1156       H  0.03973832  0.29275235  0.56903353     0.43180
C1157       C  0.46387339  0.32380519  0.46146167    -0.05880
C1158       C  0.45634737  0.30810527  0.47628216    -0.33310
C1159       C  0.47685176  0.29445606  0.45974251     0.35940
C1160       C  0.00511628  0.29605233  0.42674350    -0.06240
C1161       C  0.01048509  0.31169542  0.41035753    -0.33210
C1162       C  0.99126351  0.32531298  0.42782290     0.35840
H1163       H  0.43619104  0.30646895  0.50266948     0.16210
O1164       O  0.46994794  0.27972914  0.47723968    -0.60710
H1165       H  0.03193741  0.31365616  0.38528400     0.16230
O1166       O  0.00007145  0.34016289  0.41197243    -0.60800
H1167       H  0.02665614  0.34306632  0.42516779     0.43230
H1168       H  0.44764370  0.27504764  0.45972738     0.43180
C1169       C  0.06277042  0.67324718  0.29938690    -0.05880
C1170       C  0.03967907  0.67101386  0.26204777    -0.33310
C1171       C  0.03242845  0.68374663  0.23465376     0.35940
C1172       C  0.04813118  0.69889838  0.24491131    -0.06240
C1173       C  0.07380794  0.70091065  0.28017594    -0.33210
C1174       C  0.08172229  0.68814846  0.30725395     0.35840
H1175       H  0.02556024  0.65960139  0.25499510     0.16210
O1176       O  0.50616482  0.68171243  0.20075472    -0.60710
H1177       H  0.08589116  0.71262224  0.28798520     0.16230
O1178       O  0.10534282  0.69079617  0.34287476    -0.60800
H1179       H  0.13368993  0.68880602  0.33395286     0.43230
H1180       H  0.52345918  0.67803319  0.17721742     0.43180
C1181       C  0.01780909  0.66895893  0.45748519    -0.05880
C1182       C  0.03486214  0.68432992  0.45420155    -0.33310
C1183       C  0.51155089  0.69815546  0.46228796     0.35940
C1184       C  0.47101947  0.69671128  0.47537008    -0.06240
C1185       C  0.45532930  0.68126737  0.48197366    -0.33210
C1186       C  0.47803045  0.66753692  0.47253910     0.35840
H1187       H  0.06520828  0.68569116  0.44193484     0.16210
O1188       O  0.02843578  0.71296411  0.45671412    -0.60710
H1189       H  0.42425011  0.67978429  0.49195326     0.16230
O1190       O  0.46005320  0.65280740  0.47540676    -0.60800
H1191       H  0.46766801  0.64880064  0.50408359     0.43230
H1192       H  0.02630963  0.71504439  0.42578861     0.43180
C1193       C  0.30722611  0.67481921  0.35748103    -0.05880
C1194       C  0.32070609  0.67084752  0.39861756    -0.33310
C1195       C  0.32820163  0.68287104  0.42857203     0.35940
C1196       C  0.32339540  0.69905586  0.41692374    -0.06240
C1197       C  0.30799558  0.70298131  0.37663153    -0.33210
C1198       C  0.29957124  0.69101680  0.34702325     0.35840
H1199       H  0.32634075  0.65845675  0.40720681     0.16210
O1200       O  0.34388098  0.67876710  0.46770737    -0.60710
H1201       H  0.30459126  0.71542244  0.36733164     0.16230
O1202       O  0.28596882  0.69535640  0.30721434    -0.60800
H1203       H  0.31032990  0.69924067  0.29239489     0.43230
H1204       H  0.31987558  0.67738648  0.48586960     0.43180
C1205       C  0.40161321  0.70481119  0.19824463    -0.05880
C1206       C  0.38032461  0.69745717  0.16410104    -0.33310
C1207       C  0.35604693  0.68370239  0.17063479     0.35940
C1208       C  0.35381915  0.67692796  0.21145066    -0.06240
C1209       C  0.37442118  0.68448383  0.24515855    -0.33210
C1210       C  0.39780918  0.69809581  0.23913952     0.35840
H1211       H  0.38300264  0.70220668  0.13234091     0.16210
O1212       O  0.33590144  0.67677557  0.13696855    -0.60710
H1213       H  0.37295385  0.67958224  0.27693619     0.16230
O1214       O  0.41850612  0.70422997  0.27364439    -0.60800
H1215       H  0.44496357  0.69844941  0.27460392     0.43230
H1216       H  0.35545946  0.66894621  0.12518445     0.43180
C1217       C  0.43914630  0.32575696  0.98918065    -0.05880
C1218       C  0.40147216  0.32703441  0.96771238    -0.33310
C1219       C  0.38683617  0.31434593  0.94332491     0.35940
C1220       C  0.40972289  0.30016407  0.94057559    -0.06240
C1221       C  0.44835284  0.29914091  0.95931466    -0.33210
C1222       C  0.46325279  0.31180079  0.98372249     0.35840
H1223       H  0.38261784  0.33763104  0.97107278     0.16210
O1224       O  0.34955691  0.31570000  0.92339294    -0.60710
H1225       H  0.46627564  0.28827161  0.95642563     0.16230
O1226       O  0.50045513  0.31001754  0.00369283    -0.60800
H1227       H  0.99495907  0.30414478  0.03028951     0.43230
H1228       H  0.35533388  0.31939971  0.89426378     0.43180
C1229       C  0.40103608  0.31968931  0.14170440    -0.05880
C1230       C  0.36620209  0.32272548  0.16556156    -0.33310
C1231       C  0.33751011  0.31074131  0.17344329     0.35940
C1232       C  0.34251943  0.29502843  0.15714303    -0.06240
C1233       C  0.37780731  0.29182870  0.13382768    -0.33210
C1234       C  0.40696285  0.30389872  0.12642756     0.35840
H1235       H  0.36016613  0.33474248  0.17688975     0.16210
O1236       O  0.30286016  0.31499286  0.19433095    -0.60710
H1237       H  0.38242887  0.28002648  0.12044825     0.16230
O1238       O  0.43936649  0.30041099  0.10126177    -0.60800
H1239       H  0.46094610  0.29639433  0.12098651     0.43230
H1240       H  0.31049426  0.31463307  0.22489029     0.43180
C1241       C  0.18912611  0.30085243  0.11086276    -0.05880
C1242       C  0.19687532  0.31626084  0.12657769    -0.33310
C1243       C  0.19656833  0.32929084  0.09908356     0.35940
C1244       C  0.18732048  0.32685420  0.05592171    -0.06240
C1245       C  0.17467791  0.31173659  0.04156075    -0.33210
C1246       C  0.17557000  0.29873704  0.06876570     0.35840
H1247       H  0.20718637  0.31799173  0.15909766     0.16210
O1248       O  0.20613306  0.34420888  0.11439539    -0.60710
H1249       H  0.16660317  0.30973411  0.00850608     0.16230
O1250       O  0.16706575  0.28378876  0.05295017    -0.60800
H1251       H  0.13833857  0.28180344  0.06025498     0.43230
H1252       H  0.23628316  0.34444145  0.11610865     0.43180
C1253       C  0.23804225  0.32720870  0.90964377    -0.05880
C1254       C  0.23911776  0.32252270  0.86686258    -0.33310
C1255       C  0.25551714  0.30743510  0.85558483     0.35940
C1256       C  0.26864658  0.29649518  0.88738371    -0.06240
C1257       C  0.26433584  0.30081773  0.92985820    -0.33210
C1258       C  0.25097800  0.31609127  0.94099222     0.35840
H1259       H  0.22924611  0.33080122  0.84226793     0.16210
O1260       O  0.25990366  0.30373340  0.81357766    -0.60710
H1261       H  0.27527911  0.29288462  0.95484658     0.16230
O1262       O  0.25165273  0.32014184  0.98309291    -0.60800
H1263       H  0.28009904  0.32336197  0.98957182     0.43230
H1264       H  0.23464378  0.29800017  0.80530550     0.43180
C1265       C  0.08688910  0.67381085  0.90430524    -0.05880
C1266       C  0.07611811  0.68923361  0.88982070    -0.33310
C1267       C  0.08800547  0.70266164  0.91210873     0.35940
C1268       C  0.11113614  0.70079730  0.94933861    -0.06240
C1269       C  0.12081652  0.68544508  0.96504286    -0.33210
C1270       C  0.10892936  0.67186156  0.94239012     0.35840
H1271       H  0.05937948  0.69095384  0.86019728     0.16210
O1272       O  0.07862032  0.71756098  0.89622285    -0.60710
H1273       H  0.13946869  0.68403336  0.99352630     0.16230
O1274       O  0.11962552  0.65693427  0.95705253    -0.60800
H1275       H  0.09673845  0.65356432  0.97495251     0.43230
H1276       H  0.05380913  0.72097061  0.91124902     0.43180
C1277       C  0.09264373  0.67812711  0.74898210    -0.05880
C1278       C  0.07778140  0.69370702  0.75719778    -0.33310
C1279       C  0.09855337  0.70749546  0.74323465     0.35940
C1280       C  0.13437778  0.70594934  0.71954566    -0.06240
C1281       C  0.14830362  0.69032700  0.71038766    -0.33210
C1282       C  0.12829905  0.67665509  0.72515549     0.35840
H1283       H  0.05106132  0.69523237  0.77637793     0.16210
O1284       O  0.08403405  0.72235820  0.75380753    -0.60710
H1285       H  0.17613053  0.68862798  0.69304262     0.16230
O1286       O  0.14478473  0.66185646  0.71719635    -0.60800
H1287       H  0.13076135  0.65808235  0.69096574     0.43230
H1288       H  0.06560058  0.72549030  0.72993382     0.43180
C1289       C  0.16238524  0.33440274  0.46096081    -0.05880
C1290       C  0.12564543  0.32740876  0.47151252    -0.33310
C1291       C  0.11648199  0.31232615  0.45655766     0.35940
C1292       C  0.14260487  0.30476430  0.42770124    -0.06240
C1293       C  0.17644228  0.31280788  0.41233589    -0.33210
C1294       C  0.18696458  0.32758548  0.42959571     0.35840
H1295       H  0.10674513  0.33257070  0.49587485     0.16210
O1296       O  0.08269101  0.30483797  0.47165510    -0.60710
H1297       H  0.19596562  0.30719909  0.38928671     0.16230
O1298       O  0.22297151  0.33454930  0.41874665    -0.60800
H1299       H  0.21558766  0.34233724  0.39611405     0.43230
H1300       H  0.09091844  0.30059522  0.49994280     0.43180
C1301       C  0.13556106  0.29546844  0.66608271    -0.05880
C1302       C  0.12230284  0.31123679  0.67441229    -0.33310
C1303       C  0.14024062  0.32463714  0.65531090     0.35940
C1304       C  0.17358339  0.32279229  0.62808728    -0.06240
C1305       C  0.18821197  0.30709845  0.62111238    -0.33210
C1306       C  0.16927915  0.29357849  0.63924432     0.35840
H1307       H  0.09616965  0.31324480  0.69416716     0.16210
O1308       O  0.12455292  0.33956872  0.66336160    -0.60710
H1309       H  0.21318921  0.30520898  0.59974950     0.16230
O1310       O  0.18326955  0.27857428  0.62929744    -0.60800
H1311       H  0.20356353  0.27590834  0.65190868     0.43230
H1312       H  0.09979697  0.34047732  0.64500000     0.43180
C1313       C  0.19636428  0.42191633  0.52045827    -0.05880
C1314       C  0.17165145  0.43567501  0.52249959    -0.33310
C1315       C  0.17996414  0.44885746  0.49776375     0.35940
C1316       C  0.21232030  0.44809862  0.46978883    -0.06240
C1317       C  0.23414450  0.43387763  0.46395296    -0.33210
C1318       C  0.22659134  0.42073434  0.48954256     0.35840
H1319       H  0.14762344  0.43673511  0.54538037     0.16210
O1320       O  0.15745228  0.46264027  0.50215742    -0.60710
H1321       H  0.25908610  0.43337697  0.44198320     0.16230
O1322       O  0.24946205  0.40706229  0.48489279    -0.60800
H1323       H  0.27575508  0.40926515  0.49965911     0.43230
H1324       H  0.16818416  0.46781910  0.52834758     0.43180
C1325       C  0.39404587  0.42977674  0.44668271    -0.05880
C1326       C  0.39698742  0.43792759  0.40785346    -0.33310
C1327       C  0.37624967  0.45265426  0.40111827     0.35940
C1328       C  0.35407782  0.45984323  0.43425507    -0.06240
C1329       C  0.35384255  0.45209467  0.47369972    -0.33210
C1330       C  0.37255604  0.43721708  0.47976555     0.35840
H1331       H  0.41400614  0.43262427  0.38230902     0.16210
O1332       O  0.37782368  0.45988578  0.36216623    -0.60710
H1333       H  0.33669665  0.45705928  0.49965356     0.16230
O1334       O  0.37010912  0.43012324  0.51886707    -0.60800
H1335       H  0.34286534  0.42509339  0.51926988     0.43230
H1336       H  0.35801377  0.45401392  0.34395552     0.43180
C1337       C  0.25276533  0.55127772  0.42423035    -0.05880
C1338       C  0.27640080  0.56197364  0.44842208    -0.33310
C1339       C  0.28197589  0.57746183  0.43415704     0.35940
C1340       C  0.26329092  0.58223723  0.39595127    -0.06240
C1341       C  0.23696479  0.57216500  0.37373654    -0.33210
C1342       C  0.23276099  0.55653965  0.38656218     0.35840
H1343       H  0.29116415  0.55827850  0.47786435     0.16210
O1344       O  0.30829876  0.58741287  0.45557044    -0.60710
H1345       H  0.22360038  0.57577927  0.34344147     0.16230
O1346       O  0.20949072  0.54656518  0.36155267    -0.60800
H1347       H  0.22857468  0.54191214  0.34083409     0.43230
H1348       H  0.29078234  0.59422682  0.47348302     0.43180
C1349       C  0.07996347  0.57182848  0.40341770    -0.05880
C1350       C  0.10972920  0.57396797  0.43526574    -0.33310
C1351       C  0.12898036  0.56086304  0.45531322     0.35940
C1352       C  0.11934348  0.54487129  0.44337911    -0.06240
C1353       C  0.08824123  0.54273637  0.41254263    -0.33210
C1354       C  0.06832839  0.55598515  0.39313823     0.35840
H1355       H  0.11929611  0.58596520  0.44375369     0.16210
O1356       O  0.15877595  0.56399736  0.48518400    -0.60710
H1357       H  0.08031628  0.53076647  0.40220763     0.16230
O1358       O  0.03996903  0.55325673  0.36157028    -0.60800
H1359       H  0.01372254  0.55230094  0.37629597     0.43230
H1360       H  0.18335055  0.56660078  0.46885355     0.43180
C1361       C  0.28560999  0.45049572  0.70211573    -0.05880
C1362       C  0.29818234  0.43510392  0.71569169    -0.33310
C1363       C  0.27576506  0.42133697  0.70478892     0.35940
C1364       C  0.23919005  0.42270150  0.68103853    -0.06240
C1365       C  0.22530989  0.43814412  0.66970763    -0.33210
C1366       C  0.24829328  0.45187417  0.67947172     0.35840
H1367       H  0.32691516  0.43357968  0.73264475     0.16210
O1368       O  0.29086982  0.40655466  0.71590421    -0.60710
H1369       H  0.19778908  0.43951519  0.65054388     0.16230
O1370       O  0.23482718  0.46647750  0.66490161    -0.60800
H1371       H  0.21878226  0.47104156  0.68834653     0.43230
H1372       H  0.27807064  0.40399795  0.74327351     0.43180
C1373       C  0.33836594  0.55020699  0.73335642    -0.05880
C1374       C  0.31906351  0.54693534  0.77143860    -0.33310
C1375       C  0.30824062  0.55938103  0.79875847     0.35940
C1376       C  0.31780395  0.57543918  0.78854770    -0.06240
C1377       C  0.33575882  0.57867681  0.74952833    -0.33210
C1378       C  0.34556632  0.56624201  0.72181302     0.35840
H1379       H  0.31333447  0.53465672  0.78058496     0.16210
O1380       O  0.28968605  0.55561413  0.83603962    -0.60710
H1381       H  0.34346743  0.59084102  0.74101091     0.16230
O1382       O  0.36549676  0.56980045  0.68522711    -0.60800
H1383       H  0.34370781  0.57230783  0.66404025     0.43230
H1384       H  0.31135009  0.55092287  0.85456139     0.43180
C1385       C  0.48285316  0.55027452  0.67462932    -0.05880
C1386       C  0.01677331  0.54825432  0.70199537    -0.33310
C1387       C  0.04076769  0.56131966  0.71475884     0.35940
C1388       C  0.03086437  0.57699439  0.70089388    -0.06240
C1389       C  0.49817875  0.57897097  0.67200256    -0.33210
C1390       C  0.47478883  0.56580844  0.65829581     0.35840
H1391       H  0.02372775  0.53656663  0.71526661     0.16210
O1392       O  0.07130320  0.55879530  0.74430535    -0.60710
H1393       H  0.48976800  0.59086627  0.66114083     0.16230
O1394       O  0.44205715  0.56857086  0.63166127    -0.60800
H1395       H  0.45304715  0.56788205  0.60265948     0.43230
H1396       H  0.09542078  0.55571210  0.72769608     0.43180
C1397       C  0.44212129  0.42500071  0.58889074    -0.05880
C1398       C  0.46172024  0.43985602  0.58359514    -0.33310
C1399       C  0.45281379  0.45288668  0.60964663     0.35940
C1400       C  0.42525544  0.45100709  0.64243929    -0.06240
C1401       C  0.40740225  0.43607028  0.64948585    -0.33210
C1402       C  0.41506091  0.42316461  0.62266221     0.35840
H1403       H  0.48262658  0.44167371  0.55794258     0.16210
O1404       O  0.47106951  0.46736205  0.60285659    -0.60710
H1405       H  0.38568083  0.43464136  0.67461237     0.16230
O1406       O  0.39525663  0.40899361  0.62930000    -0.60800
H1407       H  0.36792282  0.41042451  0.61589314     0.43230
H1408       H  0.95361437  0.47283703  0.58127526     0.43180
C1409       C  0.37148084  0.57075118  0.92692828    -0.05880
C1410       C  0.38503199  0.56167761  0.89231899    -0.33310
C1411       C  0.40261898  0.54648741  0.89797335     0.35940
C1412       C  0.40908274  0.54034737  0.93915990    -0.06240
C1413       C  0.39395193  0.54916115  0.97376634    -0.33210
C1414       C  0.37468056  0.56411985  0.96778562     0.35840
H1415       H  0.38216075  0.56645985  0.86045094     0.16210
O1416       O  0.41731796  0.53857135  0.86331791    -0.60710
H1417       H  0.39896254  0.54479955  0.00580269     0.16230
O1418       O  0.36108164  0.57247524  0.00219372    -0.60800
H1419       H  0.38447568  0.57909202  0.01174622     0.43230
H1420       H  0.39376587  0.53260006  0.85137239     0.43180
C1421       C  0.04591212  0.55299147  0.90872603    -0.05880
C1422       C  0.01309595  0.56134312  0.89045337    -0.33310
C1423       C  0.01928493  0.57547911  0.86888037     0.35940
C1424       C  0.05922939  0.58114881  0.86471264    -0.06240
C1425       C  0.09155866  0.57365176  0.88713602    -0.33210
C1426       C  0.08497558  0.55951390  0.90925849     0.35840
H1427       H  0.98267560  0.55651878  0.89147561     0.16210
O1428       O  0.48670539  0.58263145  0.84848496    -0.60710
H1429       H  0.12232811  0.57813694  0.88516573     0.16230
O1430       O  0.11701637  0.55169130  0.92876281    -0.60800
H1431       H  0.12831901  0.54455046  0.90673315     0.43230
H1432       H  0.47482004  0.58995721  0.86974096     0.43180
C1433       C  0.14871698  0.45799236  0.93274713    -0.05880
C1434       C  0.15156174  0.44385414  0.90823091    -0.33310
C1435       C  0.16933814  0.42970570  0.92481340     0.35940
C1436       C  0.18600413  0.42945234  0.96621422    -0.06240
C1437       C  0.18547833  0.44370522  0.98991127    -0.33210
C1438       C  0.16670457  0.45775345  0.97394716     0.35840
H1439       H  0.13808255  0.44345969  0.87664744     0.16210
O1440       O  0.16992089  0.41612975  0.90036814    -0.60710
H1441       H  0.19752832  0.44369515  0.02214583     0.16230
O1442       O  0.16439037  0.47089150  0.99990906    -0.60800
H1443       H  0.14210977  0.46853402  0.01969222     0.43230
H1444       H  0.14354862  0.41081841  0.90538204     0.43180
C1445       C  0.00998259  0.44900166  0.93833154    -0.05880
C1446       C  0.03535709  0.44102167  0.96771072    -0.33310
C1447       C  0.52572691  0.42582145  0.98135536     0.35940
C1448       C  0.49022899  0.41851689  0.96538973    -0.06240
C1449       C  0.46676038  0.42591461  0.93330932    -0.33210
C1450       C  0.47663447  0.44114723  0.91945299     0.35840
H1451       H  0.06233926  0.44670729  0.98091874     0.16210
O1452       O  0.04913285  0.41885754  0.01292571    -0.60710
H1453       H  0.43917868  0.42034556  0.92123070     0.16230
O1454       O  0.45197529  0.44867003  0.88995369    -0.60800
H1455       H  0.46085604  0.44453188  0.86212587     0.43230
H1456       H  0.03888257  0.42336990  0.03982290     0.43180
C1457       C  0.15381994  0.44382594  0.16572214    -0.05880
C1458       C  0.18335571  0.43361033  0.18345537    -0.33310
C1459       C  0.19191577  0.41916404  0.16328440     0.35940
C1460       C  0.16874759  0.41471557  0.12726916    -0.06240
C1461       C  0.13598374  0.42393328  0.11323205    -0.33210
C1462       C  0.12919377  0.43875648  0.13101027     0.35840
H1463       H  0.20147078  0.43730757  0.21076383     0.16210
O1464       O  0.22413250  0.40991049  0.17716705    -0.60710
H1465       H  0.11901217  0.42067980  0.08466187     0.16230
O1466       O  0.10093710  0.44881982  0.11202866    -0.60800
H1467       H  0.07663426  0.44229911  0.10488172     0.43230
H1468       H  0.24875251  0.41530028  0.16658995     0.43180
C1469       C  0.47634347  0.42433496  0.12187591    -0.05880
C1470       C  0.00239219  0.42215597  0.15732669    -0.33310
C1471       C  0.02302148  0.43512586  0.17700633     0.35940
C1472       C  0.01916160  0.45106090  0.16115348    -0.06240
C1473       C  0.49271056  0.45326926  0.12578723    -0.33210
C1474       C  0.47139126  0.44025545  0.10663626     0.35840
H1475       H  0.00764310  0.41017196  0.16946945     0.16210
O1476       O  0.04859919  0.43182134  0.21078899    -0.60710
H1477       H  0.48928049  0.46510051  0.11208437     0.16230
O1478       O  0.44736378  0.44318511  0.07143484    -0.60800
H1479       H  0.46575187  0.44209316  0.04702701     0.43230
H1480       H  0.07437247  0.42810049  0.19815698     0.43180
C1481       C  0.24352222  0.54280608  0.21286392    -0.05880
C1482       C  0.22975926  0.55811954  0.20000004    -0.33310
C1483       C  0.24781034  0.57237986  0.21542190     0.35940
C1484       C  0.28219427  0.57190022  0.24320022    -0.06240
C1485       C  0.29691409  0.55649720  0.25500928    -0.33210
C1486       C  0.27767197  0.54217433  0.24070321     0.35840
H1487       H  0.20328078  0.55909396  0.17913276     0.16210
O1488       O  0.23111799  0.58678677  0.20320333    -0.60710
H1489       H  0.32245517  0.55551762  0.27707499     0.16230
O1490       O  0.29233172  0.52766346  0.25457617    -0.60800
H1491       H  0.31245296  0.52435201  0.23321127     0.43230
H1492       H  0.20692885  0.58824235  0.22116651     0.43180
C1493       C  0.10094570  0.58075197  0.24335096    -0.05880
C1494       C  0.12579114  0.56986598  0.26514473    -0.33310
C1495       C  0.13078664  0.55457698  0.24943566     0.35940
C1496       C  0.11222290  0.55041394  0.21037553    -0.06240
C1497       C  0.09066006  0.56185829  0.18642303    -0.33210
C1498       C  0.08388483  0.57698811  0.20351191     0.35840
H1499       H  0.13786726  0.57264915  0.29655611     0.16210
O1500       O  0.15265963  0.54359820  0.27312319    -0.60710
H1501       H  0.07777646  0.55884060  0.15558299     0.16230
O1502       O  0.05935093  0.58777289  0.18225862    -0.60800
H1503       H  0.03113959  0.58472796  0.18920497     0.43230
H1504       H  0.18106035  0.54752407  0.27383106     0.43180
C1505       C  0.17751525  0.80146842  0.01506814    -0.05880
C1506       C  0.14432653  0.80766105  0.03714863    -0.33310
C1507       C  0.14838449  0.82133191  0.06140557     0.35940
C1508       C  0.18633015  0.82878848  0.06445267    -0.06240
C1509       C  0.21937163  0.82303258  0.04114753    -0.33210
C1510       C  0.21479375  0.80949414  0.01552550     0.35840
H1511       H  0.11510305  0.80169601  0.03610345     0.16210
O1512       O  0.11615085  0.82648742  0.08492771    -0.60710
H1513       H  0.24872808  0.82883046  0.04361136     0.16230
O1514       O  0.24719780  0.80368173  0.99342573    -0.60800
H1515       H  0.24599274  0.80937518  0.96583878     0.43230
H1516       H  0.09963197  0.83334346  0.06544690     0.43180
C1517       C  0.15598732  0.82699440  0.22102255    -0.05880
C1518       C  0.11943239  0.82774185  0.24257345    -0.33310
C1519       C  0.09786829  0.81384151  0.25157337     0.35940
C1520       C  0.11222784  0.79859526  0.23792655    -0.06240
C1521       C  0.14990170  0.79780899  0.21786729    -0.33210
C1522       C  0.17183337  0.81184832  0.20957386     0.35840
H1523       H  0.10643322  0.83927439  0.25070100     0.16210
O1524       O  0.06086307  0.81559765  0.27045568    -0.60710
H1525       H  0.16159002  0.78640105  0.20699967     0.16230
O1526       O  0.20721005  0.81073318  0.18737889    -0.60800
H1527       H  0.19852026  0.80991067  0.15716531     0.43230
H1528       H  0.06710504  0.81604414  0.30132287     0.43180
C1529       C  0.23191970  0.94803184  0.97495204    -0.05880
C1530       C  0.19662378  0.94010328  0.96196596    -0.33310
C1531       C  0.18683468  0.92580522  0.98159451     0.35940
C1532       C  0.21366335  0.91942642  0.01261918    -0.06240
C1533       C  0.25107228  0.92643603  0.02152433    -0.33210
C1534       C  0.25967137  0.94104446  0.00404501     0.35840
H1535       H  0.17597017  0.94538729  0.93863469     0.16210
O1536       O  0.14994774  0.91881518  0.97292779    -0.60710
H1537       H  0.27151115  0.92158822  0.04578656     0.16230
O1538       O  0.29483176  0.94862369  0.01639545    -0.60800
H1539       H  0.28856723  0.95395838  0.04362337     0.43230
H1540       H  0.15569920  0.91036021  0.95176204     0.43180
C1541       C  0.20764623  0.92788143  0.18176405    -0.05880
C1542       C  0.19083181  0.94330946  0.17550053    -0.33310
C1543       C  0.20955294  0.95707529  0.19302364     0.35940
C1544       C  0.24534246  0.95566188  0.21829654    -0.06240
C1545       C  0.26002347  0.94008662  0.22731361    -0.33210
C1546       C  0.24208028  0.92642621  0.20893257     0.35840
H1547       H  0.16450361  0.94484046  0.15468226     0.16210
O1548       O  0.19352818  0.97187397  0.18365363    -0.60710
H1549       H  0.28760418  0.93848234  0.24623360     0.16230
O1550       O  0.25984305  0.91175179  0.21614980    -0.60800
H1551       H  0.24502385  0.90715253  0.24032335     0.43230
H1552       H  0.17508414  0.97435479  0.20730679     0.43180
C1553       C  0.45667188  0.82839968  0.13503575    -0.05880
C1554       C  0.42673464  0.82008448  0.15736197    -0.33310
C1555       C  0.43681644  0.80618780  0.18009970     0.35940
C1556       C  0.47683301  0.80026426  0.17925233    -0.06240
C1557       C  0.50695598  0.80896636  0.15884940    -0.33210
C1558       C  0.49742704  0.82301983  0.13743706     0.35840
H1559       H  0.39530513  0.82405853  0.15606989     0.16210
O1560       O  0.40707366  0.79800277  0.20073986    -0.60710
H1561       H  0.53829533  0.80482031  0.15942362     0.16230
O1562       O  0.52783269  0.83067388  0.11639263    -0.60800
H1563       H  0.54076738  0.83782581  0.13776851     0.43230
H1564       H  0.40512189  0.80325433  0.22883579     0.43180
C1565       C  0.04205975  0.79607524  0.96970373    -0.05880
C1566       C  0.04996176  0.81121234  0.95155066    -0.33310
C1567       C  0.02567660  0.82464092  0.95972143     0.35940
C1568       C  0.99180437  0.82329164  0.98584699    -0.06240
C1569       C  0.98289590  0.80813247  0.00314118    -0.33210
C1570       C  0.00802003  0.79469305  0.99588627     0.35840
H1571       H  0.07628119  0.81293743  0.93197609     0.16210
O1572       O  0.03615139  0.83915256  0.94289709    -0.60710
H1573       H  0.45750566  0.80686112  0.02424845     0.16230
O1574       O  0.99914037  0.78039069  0.01482442    -0.60800
H1575       H  0.51138413  0.78107925  0.04375769     0.43230
H1576       H  0.02075419  0.83990529  0.91561718     0.43180
C1577       C  0.40066661  0.91791281  0.17303202    -0.05880
C1578       C  0.36394589  0.92459103  0.15862589    -0.33310
C1579       C  0.35393643  0.94000978  0.17013019     0.35940
C1580       C  0.37979296  0.94837290  0.19845953    -0.06240
C1581       C  0.41325726  0.94068694  0.21776026    -0.33210
C1582       C  0.42406550  0.92542965  0.20485393     0.35840
H1583       H  0.34557287  0.91874508  0.13430611     0.16210
O1584       O  0.31923828  0.94682770  0.15300853    -0.60710
H1585       H  0.43212659  0.94676379  0.24120434     0.16230
O1586       O  0.45875289  0.91832926  0.22118745    -0.60800
H1587       H  0.48173001  0.92440277  0.20928640     0.43230
H1588       H  0.32684227  0.95058313  0.12441114     0.43180
C1589       C  0.41656561  0.92805013  0.01142851    -0.05880
C1590       C  0.39274895  0.92605370  0.97421669    -0.33310
C1591       C  0.37172471  0.93903778  0.95443537     0.35940
C1592       C  0.37285862  0.95475972  0.97189774    -0.06240
C1593       C  0.39717896  0.95677558  0.00897424    -0.33210
C1594       C  0.41907266  0.94380811  0.02812425     0.35840
H1595       H  0.38942666  0.91417600  0.96082714     0.16210
O1596       O  0.34814770  0.93589397  0.91910883    -0.60710
H1597       H  0.39831413  0.96840795  0.02412229     0.16230
O1598       O  0.44015498  0.94648304  0.06535743    -0.60800
H1599       H  0.46768261  0.94980426  0.05671346     0.43230
H1600       H  0.32133927  0.93266198  0.93007409     0.43180
O1601       O  0.53447609  0.89191048  0.06427123    -0.81310
O1602       O  0.85093228  0.88355712  0.06851955    -0.66000
O1603       O  0.96339224  0.88194415  0.09198017    -1.12600
C1604       C  0.96899135  0.83770256  0.00032577     1.05580
O1605       O  0.84418025  0.85733065  0.06692446    -0.79210
O1606       O  0.90857195  0.84084955  0.08964717    -0.66790
Ni1607     Ni  0.99430256  0.90110401  0.09836954     1.34870
C1608       C  0.94468049  0.84075832  0.10397460     0.84320
O1609       O  0.89765026  0.89689134  0.12533827    -0.79740
O1610       O  0.95678454  0.90984966  0.13625352    -0.90020
C1611       C  0.83150191  0.87113391  0.07747063     0.83890
O1612       O  0.96889670  0.91394835  0.05303347    -0.68220
O1613       O  0.93143107  0.83609825  0.00886252    -0.87510
C1614       C  0.93311980  0.91358862  0.03604630     0.84720
C1615       C  0.91986816  0.90705642  0.14438729     1.06290
H1616       H  0.91612773  0.87312554  0.00734564     0.38090
O1617       O  0.91971061  0.86814903  0.03482958    -1.10170
O1618       O  0.97195762  0.84984187  0.08988140    -0.66820
Ni1619     Ni  0.97682077  0.86657008  0.04905379     1.26350
O1620       O  0.90938554  0.90167298  0.04119264    -0.67050
O1621       O  0.98848301  0.85064000  0.00724242    -0.79340
C1622       C  0.54915334  0.87883998  0.07880822     0.84100
O1623       O  0.53277653  0.86590680  0.06700831    -0.66520
Ni1624     Ni  0.88920415  0.84837609  0.03634007     1.27450
Ni1625     Ni  0.90758765  0.88320751  0.07926655     1.26060
H1626       H  0.96583854  0.87669374  0.11921820     0.38650
O1627       O  0.59235605  0.89134008  0.13113700    -0.81310
O1628       O  0.77675924  0.88504296  0.11051898    -0.66000
O1629       O  0.66276682  0.88358009  0.09888485    -1.12600
C1630       C  0.67228380  0.84174378  0.20210947     1.05580
O1631       O  0.78334383  0.85896704  0.11980170    -0.79210
O1632       O  0.72258792  0.83952053  0.12109491    -0.66790
Ni1633     Ni  0.62970765  0.90222270  0.09755364     1.34870
C1634       C  0.69244257  0.84111518  0.09606022     0.84320
O1635       O  0.72287231  0.89779015  0.05747310    -0.79740
O1636       O  0.66513210  0.91259965  0.06028640    -0.90020
C1637       C  0.79518102  0.87198792  0.10378286     0.83890
O1638       O  0.65507893  0.91302598  0.14534395    -0.68220
O1639       O  0.71051513  0.84417529  0.20432221    -0.87510
C1640       C  0.69281931  0.91399566  0.15542041     0.84720
C1641       C  0.69915622  0.90888344  0.04436828     1.06290
H1642       H  0.71220902  0.87766804  0.18029591     0.38090
O1643       O  0.71072748  0.87133744  0.15467350    -1.10170
O1644       O  0.66605600  0.85215714  0.09861024    -0.66820
Ni1645     Ni  0.65433321  0.86763631  0.14097405     1.26350
O1646       O  0.71923655  0.90405745  0.14172677    -0.67050
O1647       O  0.64737141  0.85059376  0.18101440    -0.79340
C1648       C  0.57952757  0.87848357  0.11420227     0.84100
O1649       O  0.59839125  0.86555039  0.12294911    -0.66520
Ni1650     Ni  0.74575091  0.85302586  0.16273101     1.27450
Ni1651     Ni  0.71896814  0.88498733  0.10626522     1.26060
H1652       H  0.65821625  0.87875195  0.07135546     0.38650
O1653       O  0.61947276  0.51456855  0.09046844    -0.81310
O1654       O  0.65175358  0.50645883  0.28233901    -0.66000
O1655       O  0.65656224  0.50148854  0.16266222    -1.12600
C1656       C  0.54665256  0.46446688  0.17825735     1.05580
O1657       O  0.64404375  0.48025569  0.29221350    -0.79210
O1658       O  0.64339795  0.46089001  0.22343458    -0.66790
Ni1659     Ni  0.66592178  0.51926728  0.12609115     1.34870
C1660       C  0.64599107  0.45944577  0.18361221     0.84320
O1661       O  0.70164607  0.51942346  0.22580026    -0.79740
O1662       O  0.71288941  0.52661475  0.15851453    -0.90020
C1663       C  0.65593626  0.49398760  0.30493893     0.83890
O1664       O  0.63480927  0.53459204  0.15544884    -0.68220
O1665       O  0.56179952  0.46279310  0.21570986    -0.87510
C1666       C  0.62136366  0.53491948  0.19275832     0.84720
C1667       C  0.71916740  0.52831107  0.19839470     1.06290
H1668       H  0.58315490  0.49801801  0.22469373     0.38090
O1669       O  0.60658336  0.49157483  0.21767623    -1.10170
O1670       O  0.63628332  0.47023655  0.15717591    -0.66820
Ni1671     Ni  0.60622612  0.48945020  0.15765897     1.26350
O1672       O  0.62075790  0.52305342  0.21777801    -0.67050
O1673       O  0.55674632  0.47627582  0.15444310    -0.79340
C1674       C  0.60522568  0.50148582  0.07610187     0.84100
O1675       O  0.60738076  0.48860017  0.09710251    -0.66520
Ni1676     Ni  0.60311248  0.47280664  0.25201949     1.27450
Ni1677     Ni  0.65486488  0.50478212  0.22216627     1.26060
H1678       H  0.67899574  0.49422346  0.15793063     0.38650
O1679       O  0.56484562  0.51583354  0.02879581    -0.81310
O1680       O  0.97888235  0.50867927  0.84777126    -0.66000
O1681       O  0.51440685  0.50362442  0.96359875    -1.12600
C1682       C  0.62146190  0.47120760  0.91889356     1.05580
O1683       O  0.00964589  0.48748255  0.81935706    -0.79210
O1684       O  0.51634064  0.46868052  0.88699506    -0.66790
Ni1685     Ni  0.51523745  0.52181763  0.00057719     1.34870
C1686       C  0.52177985  0.46486094  0.92545822     0.84320
O1687       O  0.94554559  0.51624985  0.92080743    -0.79740
O1688       O  0.96563387  0.53059897  0.97728137    -0.90020
C1689       C  0.98232473  0.49832384  0.81851628     0.83890
O1690       O  0.54615896  0.53458452  0.96395424    -0.68220
O1691       O  0.59871283  0.46903606  0.88613943    -0.87510
C1692       C  0.53760709  0.53733659  0.92544648     0.84720
C1693       C  0.94080890  0.52784587  0.94680919     1.06290
H1694       H  0.56809681  0.50638930  0.88288266     0.38090
O1695       O  0.55096148  0.49801519  0.89362337    -1.10170
O1696       O  0.54134189  0.47334271  0.95240261    -0.66820
Ni1697     Ni  0.56604488  0.49399829  0.95214368     1.26350
O1698       O  0.51797811  0.52783320  0.90132930    -0.67050
O1699       O  0.61774718  0.48383592  0.94111494    -0.79340
C1700       C  0.58138719  0.50242920  0.03661682     0.84100
O1701       O  0.57857316  0.49074597  0.01113717    -0.66520
Ni1702     Ni  0.55435657  0.48006520  0.85549204     1.27450
Ni1703     Ni  0.49711776  0.50668022  0.90604411     1.26060
H1704       H  0.49680603  0.49577616  0.97611236     0.38650
O1705       O  0.82447632  0.51802829  0.60615715    -0.81310
O1706       O  0.93452265  0.50995058  0.76821612    -0.66000
O1707       O  0.89282880  0.50780983  0.65394042    -1.12600
C1708       C  0.81439622  0.46428298  0.70695612     1.05580
O1709       O  0.94312168  0.48366449  0.76874027    -0.79210
O1710       O  0.91562919  0.46383161  0.70690776    -0.66790
Ni1711     Ni  0.87698630  0.52662829  0.62341660     1.34870
C1712       C  0.91056383  0.46454789  0.66707533     0.84320
O1713       O  0.95224922  0.52607248  0.69775428    -0.79740
O1714       O  0.92755028  0.53737125  0.63785402    -0.90020
C1715       C  0.95161269  0.49748820  0.78346128     0.83890
O1716       O  0.85183816  0.53789832  0.66825131    -0.68220
O1717       O  0.84044831  0.46382937  0.73767445    -0.87510
C1718       C  0.85560841  0.53707160  0.70826354     0.84720
C1719       C  0.95291682  0.53690554  0.66913537     1.06290
H1720       H  0.85228712  0.49837293  0.73862572     0.38090
O1721       O  0.87353345  0.49360385  0.72196704    -1.10170
O1722       O  0.88966097  0.47526777  0.64785011    -0.66820
Ni1723     Ni  0.85257259  0.49178136  0.66526576     1.26350
O1724       O  0.87590285  0.52619482  0.72769422    -0.67050
O1725       O  0.81386535  0.47528437  0.67864517    -0.79340
C1726       C  0.81510091  0.50420906  0.59187031     0.84100
O1727       O  0.83100796  0.49161757  0.60783458    -0.66520
Ni1728     Ni  0.89062758  0.47484040  0.75202352     1.27450
Ni1729     Ni  0.91342915  0.50969713  0.71074153     1.26060
H1730       H  0.91414005  0.50291862  0.63761263     0.38650
O1731       O  0.76234288  0.51612412  0.55178195    -0.81310
O1732       O  0.68202881  0.50743221  0.36674439    -0.66000
O1733       O  0.71376010  0.50435909  0.48450396    -1.12600
C1734       C  0.82400021  0.47312329  0.42744838     1.05580
O1735       O  0.69523125  0.48174452  0.35849891    -0.79210
O1736       O  0.73459437  0.46282786  0.41287482    -0.66790
Ni1737     Ni  0.71637780  0.52337066  0.51801037     1.34870
C1738       C  0.72792038  0.46259189  0.45218800     0.84320
O1739       O  0.64684442  0.51788226  0.43758678    -0.79740
O1740       O  0.67094540  0.53372297  0.48879375    -0.90020
C1741       C  0.67891052  0.49463035  0.34529063     0.83890
O1742       O  0.75266164  0.53289737  0.48013122    -0.68220
O1743       O  0.80704881  0.47457976  0.39092939    -0.87510
C1744       C  0.74351109  0.53572317  0.44166695     0.84720
C1745       C  0.64594905  0.53106423  0.45823525     1.06290
H1746       H  0.76659836  0.50434940  0.40439541     0.38090
O1747       O  0.74842464  0.49639817  0.41547800    -1.10170
O1748       O  0.73571481  0.47391089  0.47788524    -0.66820
Ni1749     Ni  0.76452045  0.49336681  0.47299403     1.26350
O1750       O  0.72183597  0.52652446  0.41893880    -0.67050
O1751       O  0.81250418  0.48100381  0.45999737    -0.79340
C1752       C  0.78411371  0.50360318  0.55686014     0.84100
O1753       O  0.78126468  0.49162478  0.53195497    -0.66520
Ni1754     Ni  0.75117503  0.47917986  0.37597472     1.27450
Ni1755     Ni  0.69691306  0.50646368  0.42602382     1.26060
H1756       H  0.69518753  0.49718697  0.49821969     0.38650
O1757       O  0.79105387  0.35871838  0.58406410    -0.81310
O1758       O  0.60667840  0.36717261  0.56351458    -0.66000
O1759       O  0.72008041  0.36854270  0.55281254    -1.12600
C1760       C  0.71909424  0.40855402  0.66079633     1.05580
O1761       O  0.59789048  0.39256940  0.58033820    -0.79210
O1762       O  0.66037250  0.41052455  0.57496710    -0.66790
Ni1763     Ni  0.75169477  0.34952514  0.54748980     1.34870
C1764       C  0.69219503  0.40987759  0.55338504     0.84320
O1765       O  0.65748906  0.35573187  0.50809949    -0.79740
O1766       O  0.71469639  0.34067293  0.50737770    -0.90020
C1767       C  0.58703605  0.38012585  0.56015195     0.83890
O1768       O  0.72666866  0.33726340  0.59233544    -0.68220
O1769       O  0.68030653  0.40841983  0.65778990    -0.87510
C1770       C  0.68933026  0.33677832  0.60297902     0.84720
C1771       C  0.67980062  0.34473716  0.49284628     1.06290
H1772       H  0.67211497  0.37292538  0.63503615     0.38090
O1773       O  0.67409610  0.37977305  0.61048639    -1.10170
O1774       O  0.72096947  0.40000561  0.56015445    -0.66820
Ni1775     Ni  0.73096082  0.38288375  0.59892065     1.26350
O1776       O  0.66373676  0.34755525  0.59145670    -0.67050
O1777       O  0.74163132  0.39807555  0.64344163    -0.79340
C1778       C  0.80471298  0.37211494  0.57180462     0.84100
O1779       O  0.78645803  0.38477220  0.58289521    -0.66520
Ni1780     Ni  0.64070851  0.39854663  0.61999742     1.27450
Ni1781     Ni  0.66397835  0.36735337  0.55932478     1.26060
H1782       H  0.72419875  0.37423424  0.52657770     0.38650
O1783       O  0.66714006  0.60968443  0.80579925    -0.81310
O1784       O  0.97744276  0.61576744  0.78587230    -0.66000
O1785       O  0.59231373  0.62118231  0.77198509    -1.12600
C1786       C  0.57392654  0.66051799  0.87780613     1.05580
O1787       O  0.97126294  0.64151860  0.78191726    -0.79210
O1788       O  0.53645085  0.66268733  0.77478679    -0.66790
Ni1789     Ni  0.62528066  0.60192171  0.76882228     1.34870
C1790       C  0.57503063  0.66386966  0.77095551     0.84320
O1791       O  0.52814928  0.60313214  0.73082781    -0.79740
O1792       O  0.58736280  0.59012291  0.73355809    -0.90020
C1793       C  0.95794551  0.62825348  0.79519296     0.83890
O1794       O  0.60402395  0.59255337  0.81753055    -0.68220
O1795       O  0.54007169  0.66283356  0.85889855    -0.87510
C1796       C  0.56839666  0.59267657  0.83164856     0.84720
C1797       C  0.55023232  0.59113779  0.72190027     1.06290
H1798       H  0.53267209  0.62797306  0.84816925     0.38090
O1799       O  0.53984784  0.63323593  0.82209143    -1.10170
O1800       O  0.60004232  0.65380160  0.78765349    -0.66820
Ni1801     Ni  0.59674475  0.63473911  0.82263623     1.26350
O1802       O  0.53985751  0.60134985  0.81660832    -0.67050
O1803       O  0.59726129  0.64846972  0.87160611    -0.79340
C1804       C  0.67626389  0.62195012  0.82736889     0.84100
O1805       O  0.65486761  0.63464571  0.82663126    -0.66520
Ni1806     Ni  0.50707380  0.65210476  0.81938511     1.27450
Ni1807     Ni  0.53428712  0.61822513  0.77626639     1.26060
H1808       H  0.59737443  0.62751816  0.74703115     0.38650
O1809       O  0.79705876  0.38964452  0.00993783    -0.81310
O1810       O  0.61285258  0.38360831  0.01643784    -0.66000
O1811       O  0.72516468  0.38145475  0.03684792    -1.12600
C1812       C  0.72366206  0.34326994  0.92376848     1.05580
O1813       O  0.60715639  0.35820148  0.99817029    -0.79210
O1814       O  0.66810046  0.33870806  0.99241048    -0.66790
Ni1815     Ni  0.75856098  0.39938156  0.04512281     1.34870
C1816       C  0.69085684  0.33965265  0.02498837     0.84320
O1817       O  0.66231831  0.39456769  0.07695154    -0.79740
O1818       O  0.72133095  0.40836200  0.08362133    -0.90020
C1819       C  0.59533907  0.37024245  0.01943697     0.83890
O1820       O  0.73597265  0.41217737  0.99958683    -0.68220
O1821       O  0.68764715  0.34810603  0.91410109    -0.87510
C1822       C  0.69923446  0.41360682  0.98638105     0.84720
C1823       C  0.68567508  0.40468650  0.09526639     1.06290
H1824       H  0.68378718  0.37924045  0.95088073     0.38090
O1825       O  0.68204872  0.37179118  0.97420058    -1.10170
O1826       O  0.71720565  0.35056355  0.03069575    -0.66820
Ni1827     Ni  0.73627555  0.36669880  0.99281723     1.26350
O1828       O  0.67161128  0.40353634  0.99496935    -0.67050
O1829       O  0.74614485  0.35040771  0.95115515    -0.79340
C1830       C  0.81007841  0.37629918  0.02410887     0.84100
O1831       O  0.79021689  0.36364279  0.01535600    -0.66520
Ni1832     Ni  0.64791823  0.35457658  0.95543245     1.27450
Ni1833     Ni  0.66985963  0.38342738  0.02538053     1.26060
H1834       H  0.72760261  0.37580485  0.06352980     0.38650
O1835       O  0.85956844  0.38851402  0.07022686    -0.81310
O1836       O  0.54194497  0.38032395  0.06125942    -0.66000
O1837       O  0.92980366  0.37915356  0.03795727    -1.12600
C1838       C  0.92558047  0.33361569  0.12627342     1.05580
O1839       O  0.54935835  0.35410649  0.05753183    -0.79210
O1840       O  0.98567444  0.33756417  0.03671349    -0.66790
Ni1841     Ni  0.89791383  0.39828675  0.03506557     1.34870
C1842       C  0.94989303  0.33767030  0.02184155     0.84320
O1843       O  0.99466601  0.39564072  0.00757616    -0.79740
O1844       O  0.93401185  0.40789329  0.99714087    -0.90020
C1845       C  0.56089492  0.36821181  0.04826859     0.83890
O1846       O  0.92392725  0.41065444  0.08047440    -0.68220
O1847       O  0.96338702  0.33186574  0.11762345    -0.87510
C1848       C  0.95968938  0.40999057  0.09728692     0.84720
C1849       C  0.97174036  0.40618014  0.99036595     1.06290
H1850       H  0.97769563  0.36878877  0.12093147     0.38090
O1851       O  0.97431775  0.36431379  0.09283897    -1.10170
O1852       O  0.92212640  0.34669230  0.03612363    -0.66820
Ni1853     Ni  0.91743182  0.36295919  0.07900520     1.26350
O1854       O  0.98321381  0.39791278  0.09184261    -0.67050
O1855       O  0.90639215  0.34668395  0.11951593    -0.79340
C1856       C  0.84396797  0.37578795  0.05507007     0.84100
O1857       O  0.86156456  0.36261492  0.06232919    -0.66520
Ni1858     Ni  0.00542350  0.34461762  0.08970259     1.27450
Ni1859     Ni  0.98550559  0.38040474  0.05072146     1.26060
H1860       H  0.92739421  0.37441507  0.01007311     0.38650
O1861       O  0.71232632  0.64473376  0.29350544    -0.81310
O1862       O  0.89516764  0.63551665  0.30484852    -0.66000
O1863       O  0.78646864  0.63228720  0.26162157    -1.12600
C1864       C  0.78255190  0.59376387  0.37019968     1.05580
O1865       O  0.89915927  0.60959381  0.29342091    -0.79210
O1866       O  0.83480524  0.58715660  0.28055100    -0.66790
Ni1867     Ni  0.75375077  0.65125350  0.25322913     1.34870
C1868       C  0.79851296  0.58698358  0.26494765     0.84320
O1869       O  0.85364015  0.65199735  0.24473432    -0.79740
O1870       O  0.79405683  0.66037405  0.21558306    -0.90020
C1871       C  0.91434719  0.62236666  0.30913600     0.83890
O1872       O  0.77503902  0.66427034  0.29718703    -0.68220
O1873       O  0.81988660  0.59097893  0.36291226    -0.87510
C1874       C  0.80278830  0.66231154  0.32495913     0.84720
C1875       C  0.83251856  0.66183900  0.22237846     1.06290
H1876       H  0.82768863  0.62331207  0.34950059     0.38090
O1877       O  0.82663521  0.61867937  0.32142301    -1.10170
O1878       O  0.77416963  0.59883907  0.26968369    -0.66820
Ni1879     Ni  0.77185352  0.61774918  0.30595169     1.26350
O1880       O  0.82739084  0.65049566  0.32502321    -0.67050
O1881       O  0.76018784  0.60419605  0.35176521    -0.79340
C1882       C  0.69926894  0.63108249  0.30502715     0.84100
O1883       O  0.71615173  0.61845972  0.29239694    -0.66520
Ni1884     Ni  0.85847274  0.59993324  0.32653949     1.27450
Ni1885     Ni  0.84094083  0.63489426  0.28228592     1.26060
H1886       H  0.78721564  0.62655294  0.23503350     0.38650
O1887       O  0.65322795  0.64269590  0.35341510    -0.81310
O1888       O  0.97149264  0.63434960  0.34370568    -0.66000
O1889       O  0.58090719  0.62839018  0.38325890    -1.12600
C1890       C  0.58198073  0.59235846  0.26979118     1.05580
O1891       O  0.96537045  0.60826559  0.34862546    -0.79210
O1892       O  0.52919491  0.58689624  0.36421428    -0.66790
Ni1893     Ni  0.61399196  0.64648357  0.39773066     1.34870
C1894       C  0.56613147  0.58592799  0.37730054     0.84320
O1895       O  0.51518170  0.64798805  0.40792371    -0.79740
O1896       O  0.57563238  0.65295526  0.44015557    -0.90020
C1897       C  0.95158542  0.62168350  0.33557253     0.83890
O1898       O  0.59036159  0.66167040  0.36078873    -0.68220
O1899       O  0.54601126  0.58895430  0.28088442    -0.87510
C1900       C  0.56493395  0.66033763  0.33061220     0.84720
C1901       C  0.53734305  0.65545239  0.43507705     1.06290
H1902       H  0.53551166  0.62250879  0.29488998     0.38090
O1903       O  0.53832180  0.61717491  0.32199221    -1.10170
O1904       O  0.59288232  0.59625432  0.36740078    -0.66820
Ni1905     Ni  0.59394668  0.61585343  0.33425035     1.26350
O1906       O  0.54081622  0.64859775  0.32672898    -0.67050
O1907       O  0.60366882  0.60359283  0.28506651    -0.79340
C1908       C  0.66638372  0.62998812  0.33608434     0.84100
O1909       O  0.65064054  0.61658936  0.34416388    -0.66520
Ni1910     Ni  0.50668668  0.59852618  0.31616218     1.27450
Ni1911     Ni  0.52600120  0.63213852  0.36541520     1.26060
H1912       H  0.58055230  0.62151270  0.40787548     0.38650
O1913       O  0.84994098  0.36064365  0.52117292    -0.81310
O1914       O  0.53382092  0.36867900  0.51856848    -0.66000
O1915       O  0.92412135  0.36864263  0.54769575    -1.12600
C1916       C  0.91421101  0.41403718  0.45543989     1.05580
O1917       O  0.53653846  0.39498288  0.52234367    -0.79210
O1918       O  0.97383923  0.41473047  0.52864494    -0.66790
Ni1919     Ni  0.89255545  0.34988081  0.55063975     1.34870
C1920       C  0.94720166  0.41244020  0.55631086     0.84320
O1921       O  0.99201211  0.35328429  0.57591072    -0.79740
O1922       O  0.93312365  0.33979048  0.58403530    -0.90020
C1923       C  0.55107004  0.38121845  0.53166456     0.83890
O1924       O  0.91331817  0.33844000  0.50160748    -0.68220
O1925       O  0.95189860  0.41198771  0.44698168    -0.87510
C1926       C  0.94901311  0.33834274  0.48594898     0.84720
C1927       C  0.97037695  0.34251882  0.59270907     1.06290
H1928       H  0.95953855  0.37805084  0.46229065     0.38090
O1929       O  0.96152503  0.38327154  0.48958956    -1.10170
O1930       O  0.92361972  0.40043001  0.55553214    -0.66820
Ni1931     Ni  0.90796488  0.38578826  0.51103675     1.26350
O1932       O  0.97425042  0.34970292  0.49296365    -0.67050
O1933       O  0.89363583  0.40391455  0.47639061    -0.79340
C1934       C  0.83692110  0.37311267  0.54007209     0.84100
O1935       O  0.85504002  0.38632052  0.53482675    -0.66520
Ni1936     Ni  0.99360533  0.40225220  0.48333554     1.27450
Ni1937     Ni  0.97834255  0.36781981  0.53190035     1.26060
H1938       H  0.92430017  0.37271440  0.57638278     0.38650
O1939       O  0.72837789  0.60670163  0.86078955    -0.81310
O1940       O  0.90698941  0.61425421  0.83237221    -0.66000
O1941       O  0.80544155  0.61766719  0.88829901    -1.12600
C1942       C  0.78985423  0.65964834  0.79128571     1.05580
O1943       O  0.91551588  0.63966220  0.84866257    -0.79210
O1944       O  0.85451585  0.66131847  0.87963721    -0.66790
Ni1945     Ni  0.77306883  0.59910082  0.89684988     1.34870
C1946       C  0.81934116  0.66168637  0.89659104     0.84320
O1947       O  0.87203343  0.59590841  0.89303262    -0.79740
O1948       O  0.81669546  0.58958400  0.93056120    -0.90020
C1949       C  0.92601655  0.62732645  0.82741446     0.83890
O1950       O  0.78987810  0.58616173  0.85072720    -0.68220
O1951       O  0.82721723  0.66247226  0.79921207    -0.87510
C1952       C  0.81361289  0.58840847  0.82024140     0.84720
C1953       C  0.85281276  0.58663995  0.91792752     1.06290
H1954       H  0.83621023  0.62913527  0.79910566     0.38090
O1955       O  0.83850987  0.63263066  0.82826476    -1.10170
O1956       O  0.79271737  0.65100338  0.88856612    -0.66820
Ni1957     Ni  0.78568720  0.63347842  0.84868912     1.26350
O1958       O  0.83556203  0.60085990  0.81739313    -0.67050
O1959       O  0.76916994  0.64839465  0.80691511    -0.79340
C1960       C  0.71331010  0.62059749  0.85399105     0.84100
O1961       O  0.73157098  0.63288801  0.86685595    -0.66520
Ni1962     Ni  0.87031604  0.65134296  0.82626904     1.27450
Ni1963     Ni  0.85646105  0.61480011  0.86140622     1.26060
H1964       H  0.81030865  0.62266463  0.91554799     0.38650
O1965       O  0.55953308  0.73248489  0.12702025    -0.81310
O1966       O  0.96536624  0.73907140  0.29822552    -0.66000
O1967       O  0.99951506  0.74500528  0.18221468    -1.12600
C1968       C  0.58543546  0.78426491  0.24077614     1.05580
O1969       O  0.96021976  0.76519031  0.30582494    -0.79210
O1970       O  0.97802126  0.78348012  0.23889347    -0.66790
Ni1971     Ni  0.50474776  0.72711195  0.14434797     1.34870
C1972       C  0.98973645  0.78571531  0.20134552     0.84320
O1973       O  0.93955029  0.72687540  0.22404612    -0.79740
O1974       O  0.95102783  0.71896042  0.15740694    -0.90020
C1975       C  0.95385654  0.75117575  0.31960106     0.83890
O1976       O  0.52768296  0.71270797  0.18428577    -0.68220
O1977       O  0.55630861  0.78549199  0.26654776    -0.87510
C1978       C  0.53116923  0.71291198  0.22430139     0.84720
C1979       C  0.93172989  0.71798974  0.19212664     1.06290
H1980       H  0.54517972  0.75018906  0.27091709     0.38090
O1981       O  0.52500353  0.75573516  0.25363906    -1.10170
O1982       O  0.01586030  0.77691818  0.18316926    -0.66820
Ni1983     Ni  0.54616340  0.75799002  0.19754725     1.26350
O1984       O  0.51796231  0.72397300  0.24811302    -0.67050
O1985       O  0.58968080  0.77218820  0.21590758    -0.79340
C1986       C  0.57668883  0.74576865  0.11918111     0.84100
O1987       O  0.56806488  0.75840823  0.14028057    -0.66520
Ni1988     Ni  0.50916882  0.77428088  0.28416101     1.27450
Ni1989     Ni  0.98177189  0.74152744  0.23927207     1.26060
H1990       H  0.97928183  0.75186974  0.16886613     0.38650
O1991       O  0.62903535  0.73332452  0.07852979    -0.81310
O1992       O  0.68953596  0.74167122  0.88520676    -0.66000
O1993       O  0.67300133  0.74461617  0.00703985    -1.12600
C1994       C  0.57235633  0.78285450  0.96302424     1.05580
O1995       O  0.69373946  0.76769995  0.88677323    -0.79210
O1996       O  0.67698550  0.78620714  0.95277472    -0.66790
Ni1997     Ni  0.67260624  0.72563353  0.04188657     1.34870
C1998       C  0.67026967  0.78674641  0.99205561     0.84320
O1999       O  0.73014805  0.72819570  0.95220364    -0.79740
O2000       O  0.71531071  0.71446118  0.01044449    -0.90020
C2001       C  0.69410179  0.75489161  0.86560578     0.83890
O2002       O  0.63346101  0.71537089  0.00758977    -0.68220
O2003       O  0.59697861  0.78513219  0.93293228    -0.87510
C2004       C  0.63164184  0.71444380  0.96752915     0.84720
C2005       C  0.73526577  0.71600141  0.97620181     1.06290
H2006       H  0.61515380  0.75034768  0.92630232     0.38090
O2007       O  0.63657781  0.75604418  0.94119162    -1.10170
O2008       O  0.65138836  0.77609170  0.01203791    -0.66820
Ni2009     Ni  0.62261127  0.75714387  0.99926681     1.26350
O2010       O  0.64939092  0.72385702  0.94203447    -0.67050
O2011       O  0.57508648  0.77073528  0.98814476    -0.79340
C2012       C  0.60686843  0.74579735  0.08381988     0.84100
O2013       O  0.60744156  0.75749376  0.05815929    -0.66520
Ni2014     Ni  0.64500660  0.77552828  0.91085791     1.27450
Ni2015     Ni  0.68324978  0.74233442  0.94678926     1.26060
H2016       H  0.69394903  0.75145351  0.01883311     0.38650
O2017       O  0.76333468  0.73643072  0.60469937    -0.81310
O2018       O  0.70376165  0.74421740  0.79538250    -0.66000
O2019       O  0.72092226  0.74838713  0.67491713    -1.12600
C2020       C  0.81780305  0.78693860  0.71759052     1.05580
O2021       O  0.70258749  0.77029099  0.80336084    -0.79210
O2022       O  0.71011352  0.78772746  0.72962934    -0.66790
Ni2023     Ni  0.72242666  0.72899703  0.64188760     1.34870
C2024       C  0.71578262  0.78846397  0.68981755     0.84320
O2025       O  0.66237572  0.73262643  0.72830135    -0.79740
O2026       O  0.68181431  0.71783809  0.67372836    -0.90020
C2027       C  0.70099972  0.75631966  0.81928548     0.83890
O2028       O  0.76359783  0.72014957  0.67698766    -0.68220
O2029       O  0.79109166  0.78954539  0.74540132    -0.87510
C2030       C  0.75952652  0.71790452  0.71629857     0.84720
C2031       C  0.65998480  0.71989624  0.70608982     1.06290
H2032       H  0.77778230  0.75371484  0.75695487     0.38090
O2033       O  0.75663051  0.75951008  0.74164556    -1.10170
O2034       O  0.74078824  0.77953964  0.67044025    -0.66820
Ni2035     Ni  0.77135838  0.76060572  0.68333021     1.26350
O2036       O  0.74237208  0.72777075  0.74066998    -0.67050
O2037       O  0.81842697  0.77412235  0.69506819    -0.79340
C2038       C  0.78676031  0.74817026  0.59878584     0.84100
O2039       O  0.78825061  0.76012956  0.62411111    -0.66520
Ni2040     Ni  0.74691086  0.77898139  0.77169048     1.27450
Ni2041     Ni  0.70980066  0.74624699  0.73482522     1.26060
H2042       H  0.69998695  0.75513163  0.66236343     0.38650
O2043       O  0.82081342  0.73198703  0.54908146    -0.81310
O2044       O  0.92177591  0.73723660  0.37887524    -0.66000
O2045       O  0.88520370  0.74002890  0.49495431    -1.12600
C2046       C  0.79819725  0.78119941  0.43777778     1.05580
O2047       O  0.92156192  0.76355992  0.37687895    -0.79210
O2048       O  0.88974526  0.78474297  0.43139799    -0.66790
Ni2049     Ni  0.86863145  0.72167406  0.52559571     1.34870
C2050       C  0.89540758  0.78382457  0.47121408     0.84320
O2051       O  0.94550748  0.72242538  0.45299103    -0.79740
O2052       O  0.91479178  0.70950106  0.50622842    -0.90020
C2053       C  0.93078718  0.75024697  0.36001188     0.83890
O2054       O  0.83584207  0.71253527  0.48153046    -0.68220
O2055       O  0.81423116  0.77887763  0.40175535    -0.87510
C2056       C  0.84298529  0.71157803  0.44220996     0.84720
C2057       C  0.94286742  0.71065982  0.47891236     1.06290
H2058       H  0.83716656  0.74653233  0.41265350     0.38090
O2059       O  0.85918574  0.75241635  0.42593314    -1.10170
O2060       O  0.88404095  0.77203883  0.49341637    -0.66820
Ni2061     Ni  0.84426113  0.75587806  0.48332318     1.26350
O2062       O  0.86863214  0.72023416  0.42331927    -0.67050
O2063       O  0.80536358  0.77237574  0.47014032    -0.79340
C2064       C  0.81424588  0.74629977  0.56173941     0.84100
O2065       O  0.82924373  0.75812715  0.54222013    -0.66520
Ni2066     Ni  0.86748101  0.77040763  0.39020871     1.27450
Ni2067     Ni  0.90346625  0.73775312  0.43774986     1.26060
H2068       H  0.90707693  0.74479939  0.51140261     0.38650
O2069       O  0.84851986  0.89288285  0.60506033    -0.81310
O2070       O  0.53242960  0.88059185  0.59242098    -0.66000
O2071       O  0.92018680  0.88317904  0.57282242    -1.12600
C2072       C  0.91807964  0.84089993  0.67560974     1.05580
O2073       O  0.53224497  0.85420099  0.59372572    -0.79210
O2074       O  0.96731054  0.83618000  0.59895380    -0.66790
Ni2075     Ni  0.89076877  0.90266158  0.57350326     1.34870
C2076       C  0.93945311  0.83833503  0.57139033     0.84320
O2077       O  0.48640751  0.89687996  0.53733038    -0.79740
O2078       O  0.92954757  0.91227538  0.53843237    -0.90020
C2079       C  0.54656263  0.86730883  0.58041520     0.83890
O2080       O  0.91780471  0.91293675  0.62200379    -0.68220
O2081       O  0.95662781  0.84249725  0.68026620    -0.87510
C2082       C  0.95573772  0.91275427  0.63245693     0.84720
C2083       C  0.96484905  0.90881711  0.52517492     1.06290
H2084       H  0.96398783  0.87479871  0.65560447     0.38090
O2085       O  0.96294232  0.86884468  0.62933856    -1.10170
O2086       O  0.91786738  0.85103729  0.56928595    -0.66820
Ni2087     Ni  0.90737562  0.86688992  0.61246829     1.26350
O2088       O  0.97943367  0.90146327  0.62090913    -0.67050
O2089       O  0.89608892  0.84986297  0.65138952    -0.79340
C2090       C  0.83257007  0.88008623  0.59013847     0.84100
O2091       O  0.85201492  0.86690067  0.59303262    -0.66520
Ni2092     Ni  0.99416147  0.84963413  0.63810895     1.27450
Ni2093     Ni  0.97622519  0.88294412  0.58362783     1.26060
H2094       H  0.91600153  0.87890899  0.54459819     0.38650
O2095       O  0.77645415  0.89371769  0.55587215    -0.81310
O2096       O  0.59405512  0.88016636  0.53853483    -0.66000
O2097       O  0.70210657  0.88211693  0.57549895    -1.12600
C2098       C  0.71878685  0.84166321  0.47058196     1.05580
O2099       O  0.59476818  0.85396127  0.53765711    -0.79210
O2100       O  0.66064511  0.83601700  0.54048816    -0.66790
Ni2101     Ni  0.72938844  0.90157017  0.58454259     1.34870
C2102       C  0.68419894  0.83842177  0.57200595     0.84320
O2103       O  0.63061691  0.89330073  0.60466234    -0.79740
O2104       O  0.68562397  0.90872414  0.61820128    -0.90020
C2105       C  0.57911382  0.86710563  0.54964042     0.83890
O2106       O  0.70715809  0.91393211  0.53640529    -0.68220
O2107       O  0.68108720  0.84340052  0.46067659    -0.87510
C2108       C  0.67165754  0.91345806  0.51875684     0.84720
C2109       C  0.64971945  0.90383943  0.62584018     1.06290
H2110       H  0.66889600  0.87552196  0.48601279     0.38090
O2111       O  0.66762239  0.86910891  0.51144497    -1.10170
O2112       O  0.70666260  0.85071227  0.57548115    -0.66820
Ni2113     Ni  0.72099808  0.86713670  0.53541804     1.26350
O2114       O  0.64829055  0.90149830  0.52382100    -0.67050
O2115       O  0.73781987  0.85084764  0.49662836    -0.79340
C2116       C  0.79247551  0.88043723  0.56818314     0.84100
O2117       O  0.77396701  0.86728240  0.56140089    -0.66520
Ni2118     Ni  0.63837909  0.84981915  0.49820836     1.27450
Ni2119     Ni  0.64799124  0.88186140  0.55680882     1.26060
H2120       H  0.70276952  0.87705707  0.60305874     0.38650
O2121       O  0.75220150  0.23530561  0.04330607    -0.81310
O2122       O  0.68306111  0.24271602  0.23255315    -0.66000
O2123       O  0.70722261  0.24582060  0.11334382    -1.12600
C2124       C  0.80938034  0.28275218  0.16221773     1.05580
O2125       O  0.68557727  0.26902503  0.23875425    -0.79210
O2126       O  0.70525218  0.28741648  0.17402814    -0.66790
Ni2127     Ni  0.71156123  0.22646866  0.08082586     1.34870
C2128       C  0.70645311  0.28738334  0.13401201     0.84320
O2129       O  0.64695014  0.23015032  0.16346627    -0.79740
O2130       O  0.67144290  0.21434631  0.11329460    -0.90020
C2131       C  0.67517379  0.25547601  0.25289525     0.83890
O2132       O  0.75349570  0.21877639  0.11729446    -0.68220
O2133       O  0.78565037  0.28460336  0.19339436    -0.87510
C2134       C  0.74741683  0.21566899  0.15595544     0.84720
C2135       C  0.64741691  0.21668954  0.14419093     1.06290
H2136       H  0.76281466  0.25001386  0.19526284     0.38090
O2137       O  0.74205876  0.25642054  0.18116461    -1.10170
O2138       O  0.72565401  0.27714061  0.11247504    -0.66820
Ni2139     Ni  0.75669539  0.25836176  0.12299138     1.26350
O2140       O  0.72599499  0.22447235  0.17996177    -0.67050
O2141       O  0.80433733  0.27157384  0.13477014    -0.79340
C2142       C  0.77262612  0.24811579  0.03787779     0.84100
O2143       O  0.77157701  0.25963772  0.06406568    -0.66520
Ni2144     Ni  0.73610360  0.27551408  0.21431648     1.27450
Ni2145     Ni  0.69430316  0.24361155  0.17257421     1.26060
H2146       H  0.68641400  0.25238338  0.09986582     0.38650
O2147       O  0.56060389  0.23277625  0.57339930    -0.81310
O2148       O  0.98273951  0.24047652  0.75799566    -0.66000
O2149       O  0.51253695  0.24359485  0.64081394    -1.12600
C2150       C  0.61016199  0.28163552  0.68140081     1.05580
O2151       O  0.99926117  0.26531659  0.77660487    -0.79210
O2152       O  0.00441168  0.28184907  0.70474300    -0.66790
Ni2153     Ni  0.51858511  0.22423742  0.60867975     1.34870
C2154       C  0.01135124  0.28444955  0.66608776     0.84320
O2155       O  0.95035896  0.22900047  0.68696326    -0.79740
O2156       O  0.97634270  0.21307999  0.63774850    -0.90020
C2157       C  0.97865134  0.25262759  0.78186296     0.83890
O2158       O  0.55792266  0.21528395  0.64712435    -0.68220
O2159       O  0.58640974  0.28412077  0.71235955    -0.87510
C2160       C  0.55327636  0.21374475  0.68683918     0.84720
C2161       C  0.95016572  0.21596373  0.66595054     1.06290
H2162       H  0.56810524  0.24682837  0.72325293     0.38090
O2163       O  0.54772471  0.25354219  0.70959299    -1.10170
O2164       O  0.53129811  0.27497952  0.64311302    -0.66820
Ni2165     Ni  0.56116401  0.25581134  0.65061744     1.26350
O2166       O  0.52890172  0.22224709  0.70839571    -0.67050
O2167       O  0.60939399  0.26847034  0.66094143    -0.79340
C2168       C  0.57414950  0.24666174  0.56517213     0.84100
O2169       O  0.57205535  0.25808319  0.59131976    -0.66520
Ni2170     Ni  0.54349995  0.27294294  0.74235618     1.27450
Ni2171     Ni  0.99815872  0.24154302  0.69913782     1.26060
H2172       H  0.99214556  0.25012571  0.62653570     0.38650
O2173       O  0.61981024  0.23711722  0.51669240    -0.81310
O2174       O  0.65565006  0.24388901  0.31873076    -0.66000
O2175       O  0.64770937  0.24909882  0.43959574    -1.12600
C2176       C  0.53312588  0.28259045  0.41162752     1.05580
O2177       O  0.63288848  0.26821476  0.30189628    -0.79210
O2178       O  0.63454180  0.28598379  0.37348536    -0.66790
Ni2179     Ni  0.65641292  0.23043783  0.47441137     1.34870
C2180       C  0.63266023  0.28887659  0.41284427     0.84320
O2181       O  0.70543546  0.23521244  0.38154879    -0.79740
O2182       O  0.69496741  0.22011301  0.43790866    -0.90020
C2183       C  0.65258395  0.25551448  0.29306219     0.83890
O2184       O  0.61277476  0.22017219  0.44668505    -0.68220
O2185       O  0.55232985  0.28521032  0.37759112    -0.87510
C2186       C  0.61410452  0.21654824  0.40793308     0.84720
C2187       C  0.71351298  0.22270468  0.40369170     1.06290
H2188       H  0.57905953  0.24872627  0.36731422     0.38090
O2189       O  0.59910099  0.25633860  0.37726364    -1.10170
O2190       O  0.61767365  0.27935918  0.43973012    -0.66820
Ni2191     Ni  0.59328151  0.25878853  0.43757493     1.26350
O2192       O  0.62750161  0.22574832  0.37942131    -0.67050
O2193       O  0.54043945  0.26993941  0.43381881    -0.79340
C2194       C  0.59554608  0.24842373  0.52479093     0.84100
O2195       O  0.58761181  0.25976365  0.49873701    -0.66520
Ni2196     Ni  0.59323631  0.27514504  0.34259380     1.27450
Ni2197     Ni  0.65245589  0.24617576  0.37920409     1.26060
H2198       H  0.66743550  0.25698647  0.44862054     0.38650
O2199       O  0.82031523  0.23458479  0.99774038    -0.81310
O2200       O  0.94120912  0.24239766  0.84153582    -0.66000
O2201       O  0.88462218  0.24681441  0.94778106    -1.12600
C2202       C  0.79605536  0.28270595  0.87897318     1.05580
O2203       O  0.92364501  0.26584887  0.81291777    -0.79210
O2204       O  0.90459147  0.28386024  0.88101301    -0.66790
Ni2205     Ni  0.87294916  0.22788953  0.97947372     1.34870
C2206       C  0.89291617  0.28641777  0.91853184     0.84320
O2207       O  0.95834048  0.23269385  0.92031741    -0.79740
O2208       O  0.92382184  0.21798200  0.96615289    -0.90020
C2209       C  0.94597861  0.25338339  0.81411047     0.83890
O2210       O  0.84689988  0.21787320  0.93297971    -0.68220
O2211       O  0.82584123  0.28513147  0.85481758    -0.87510
C2212       C  0.86325098  0.21476491  0.89802941     0.84720
C2213       C  0.95501678  0.22036737  0.94395030     1.06290
H2214       H  0.84913534  0.24774242  0.85460402     0.38090
O2215       O  0.86514163  0.25514347  0.87143092    -1.10170
O2216       O  0.86579672  0.27825881  0.93719473    -0.66820
Ni2217     Ni  0.83836413  0.25828611  0.92516335     1.26350
O2218       O  0.88933673  0.22377205  0.88097123    -0.67050
O2219       O  0.79317604  0.27007322  0.90128125    -0.79340
C2220       C  0.80296135  0.24795791  0.00303109     0.84100
O2221       O  0.81193764  0.26011492  0.98037203    -0.66520
Ni2222     Ni  0.87407964  0.27385734  0.83709371     1.27450
Ni2223     Ni  0.91278754  0.24416728  0.89493123     1.26060
H2224       H  0.90057886  0.25376645  0.96598296     0.38650
O2225       O  0.76834409  0.01675476  0.05494417    -0.81310
O2226       O  0.72382592  0.00744028  0.85846053    -0.66000
O2227       O  0.73428888  0.00574850  0.97929802    -1.12600
C2228       C  0.84391148  0.96799117  0.95554606     1.05580
O2229       O  0.73630222  0.98150709  0.84977030    -0.79210
O2230       O  0.74835969  0.96316644  0.91724855    -0.66790
Ni2231     Ni  0.73486527  0.02543028  0.01047597     1.34870
C2232       C  0.74275929  0.96297606  0.95667936     0.84320
O2233       O  0.68057029  0.02096066  0.91915467    -0.79740
O2234       O  0.70018717  0.03709711  0.97145955    -0.90020
C2235       C  0.71800104  0.99436748  0.83873347     0.83890
O2236       O  0.78144950  0.03288155  0.98211470    -0.68220
O2237       O  0.82932724  0.96694598  0.91764945    -0.87510
C2238       C  0.78395065  0.03435150  0.94218733     0.84720
C2239       C  0.67858845  0.03438215  0.93849185     1.06290
H2240       H  0.80131905  0.00145672  0.91146756     0.38090
O2241       O  0.77911446  0.99474810  0.92006539    -1.10170
O2242       O  0.75198211  0.97406391  0.98241569    -0.66820
Ni2243     Ni  0.78368480  0.99277616  0.98039507     1.26350
O2244       O  0.76244931  0.02628975  0.91566610    -0.67050
O2245       O  0.83223774  0.97903799  0.98095357    -0.79340
C2246       C  0.78347499  0.00336523  0.06610535     0.84100
O2247       O  0.78635511  0.99153190  0.04114729    -0.66520
Ni2248     Ni  0.78308365  0.97591023  0.88532316     1.27450
Ni2249     Ni  0.72926110  0.00742597  0.91904586     1.26060
H2250       H  0.71179333  0.99948967  0.98930884     0.38650
O2251       O  0.81309238  0.01603987  0.12425555    -0.81310
O2252       O  0.90738308  0.01175026  0.28935740    -0.66000
O2253       O  0.87125894  0.00337470  0.17604284    -1.12600
C2254       C  0.77192996  0.96972669  0.22964588     1.05580
O2255       O  0.89207446  0.98753402  0.31388714    -0.79210
O2256       O  0.87906808  0.96852026  0.24868503    -0.66790
Ni2257     Ni  0.86943145  0.01969472  0.13426605     1.34870
C2258       C  0.86929654  0.96436187  0.21143150     0.84320
O2259       O  0.93452317  0.02107500  0.21405657    -0.79740
O2260       O  0.92541481  0.02482159  0.14387213    -0.90020
C2261       C  0.91354827  0.00016948  0.31495170     0.83890
O2262       O  0.85448235  0.03711435  0.16868082    -0.68220
O2263       O  0.79762927  0.96800928  0.26031798    -0.87510
C2264       C  0.84843512  0.03827839  0.20793304     0.84720
C2265       C  0.94395239  0.02773215  0.17889246     1.06290
H2266       H  0.82034822  0.00447175  0.25983738     0.38090
O2267       O  0.83940575  0.99709194  0.24730718    -1.10170
O2268       O  0.84730873  0.97275517  0.18645118    -0.66820
Ni2269     Ni  0.82123601  0.99304171  0.18994325     1.26350
O2270       O  0.85734888  0.02753855  0.23503847    -0.67050
O2271       O  0.77230327  0.98199260  0.20546858    -0.79340
C2272       C  0.80131343  0.00288681  0.10893275     0.84100
O2273       O  0.80534884  0.99026170  0.13098863    -0.66520
Ni2274     Ni  0.84412740  0.97934304  0.28511968     1.27450
Ni2275     Ni  0.88859159  0.00836671  0.23187218     1.26060
H2276       H  0.88994549  0.99538661  0.16561972     0.38650
O2277       O  0.61461185  0.01840394  0.60120237    -0.81310
O2278       O  0.67795577  0.00600515  0.78262808    -0.66000
O2279       O  0.66063677  0.00228329  0.66338513    -1.12600
C2280       C  0.55635097  0.96600734  0.69695172     1.05580
O2281       O  0.67527450  0.97969287  0.79132905    -0.79210
O2282       O  0.66548633  0.96573757  0.71559400    -0.66790
Ni2283     Ni  0.66764202  0.02028637  0.62697068     1.34870
C2284       C  0.65157525  0.96163777  0.67979107     0.84320
O2285       O  0.71513373  0.01889265  0.71867863    -0.79740
O2286       O  0.72118909  0.02487026  0.65017662    -0.90020
C2287       C  0.68852045  0.99345726  0.80256964     0.83890
O2288       O  0.64600380  0.03557132  0.66399431    -0.68220
O2289       O  0.58176426  0.96268520  0.72730273    -0.87510
C2290       C  0.63405864  0.03522250  0.70186428     0.84720
C2291       C  0.73039576  0.02720368  0.68916034     1.06290
H2292       H  0.60048723  0.99786839  0.74135687     0.38090
O2293       O  0.62165249  0.99190053  0.72740887    -1.10170
O2294       O  0.63549063  0.97174930  0.65490065    -0.66820
Ni2295     Ni  0.60916727  0.99144386  0.66754318     1.26350
O2296       O  0.63533977  0.02298890  0.72560053    -0.67050
O2297       O  0.55949719  0.97890060  0.67469031    -0.79340
C2298       C  0.59551889  0.00618316  0.58808519     0.84100
O2299       O  0.59701191  0.99288290  0.60777689    -0.66520
Ni2300     Ni  0.62865991  0.97231104  0.75727345     1.27450
Ni2301     Ni  0.66948312  0.00474336  0.72278551     1.26060
H2302       H  0.68071782  0.99460002  0.65425157     0.38650
O2303       O  0.56075939  0.02232932  0.53761899    -0.81310
O2304       O  0.95268720  0.01233535  0.37061940    -0.66000
O2305       O  0.49805448  0.01115041  0.48301315    -1.12600
C2306       C  0.58496691  0.96916605  0.44186181     1.05580
O2307       O  0.96870093  0.98756122  0.35024763    -0.79210
O2308       O  0.97565256  0.97327467  0.42488212    -0.66790
Ni2309     Ni  0.51210211  0.03103164  0.51021141     1.34870
C2310       C  0.98748552  0.96961860  0.46184017     0.84320
O2311       O  0.93151624  0.02618926  0.44224129    -0.79740
O2312       O  0.96456402  0.04224416  0.48770009    -0.90020
C2313       C  0.94743289  0.00033012  0.34665148     0.83890
O2314       O  0.54327259  0.03932112  0.46455362    -0.68220
O2315       O  0.55713875  0.96662941  0.41367212    -0.87510
C2316       C  0.53001188  0.04047717  0.42655419     0.84720
C2317       C  0.93472235  0.03948588  0.46232282     1.06290
H2318       H  0.54265342  0.00494450  0.39731449     0.38090
O2319       O  0.52328035  0.99884181  0.41321703    -1.10170
O2320       O  0.51078999  0.97859322  0.48375752    -0.66820
Ni2321     Ni  0.54258667  0.99708019  0.47115289     1.26350
O2322       O  0.50491772  0.03070371  0.41013479    -0.67050
O2323       O  0.58786262  0.98284354  0.45959006    -0.79340
C2324       C  0.56981870  0.00817631  0.54989696     0.84100
O2325       O  0.55900176  0.99599410  0.52905546    -0.66520
Ni2326     Ni  0.51363416  0.97893752  0.38392679     1.27450
Ni2327     Ni  0.97604970  0.01214778  0.42684484     1.26060
H2328       H  0.97883541  0.00571104  0.50069308     0.38650
O2329       O  0.65788436  0.10708154  0.27518397    -0.81310
O2330       O  0.97086724  0.11534990  0.26917305    -0.66000
O2331       O  0.58253932  0.11667707  0.23651695    -1.12600
C2332       C  0.58290958  0.15816614  0.33885894     1.05580
O2333       O  0.96898067  0.14111444  0.25716624    -0.79210
O2334       O  0.53257927  0.16306137  0.24550749    -0.66790
Ni2335     Ni  0.61572137  0.09757867  0.24033034     1.34870
C2336       C  0.56760216  0.16220476  0.22857258     0.84320
O2337       O  0.01461038  0.09692893  0.21554599    -0.79740
O2338       O  0.57615571  0.08517735  0.20898618    -0.90020
C2339       C  0.95401404  0.12887327  0.27484445     0.83890
O2340       O  0.59617753  0.08914976  0.29162378    -0.68220
O2341       O  0.54555078  0.16060114  0.32985990    -0.87510
C2342       C  0.56303293  0.09095765  0.31057934     0.84720
C2343       C  0.53743381  0.08516164  0.20512955     1.06290
H2344       H  0.53892045  0.12801672  0.31822954     0.38090
O2345       O  0.54008368  0.13216467  0.28968533    -1.10170
O2346       O  0.59162929  0.15033312  0.23545977    -0.66820
Ni2347     Ni  0.59526376  0.13312998  0.27731081     1.26350
O2348       O  0.53500522  0.10044361  0.29798101    -0.67050
O2349       O  0.60582634  0.14816668  0.32057192    -0.79340
C2350       C  0.67034278  0.12120842  0.28179271     0.84100
O2351       O  0.65134701  0.13308307  0.26690008    -0.66520
Ni2352     Ni  0.50825140  0.15117453  0.29163897     1.27450
Ni2353     Ni  0.52633327  0.11503206  0.25163553     1.26060
H2354       H  0.58408331  0.12095779  0.20813921     0.38650
O2355       O  0.73450451  0.13926594  0.78232416    -0.81310
O2356       O  0.92742702  0.13101516  0.77706812    -0.66000
O2357       O  0.81054605  0.12917976  0.75446022    -1.12600
C2358       C  0.84106322  0.08640858  0.84831378     1.05580
O2359       O  0.93429470  0.10653145  0.80681089    -0.79210
O2360       O  0.85035827  0.08535270  0.74403532    -0.66790
Ni2361     Ni  0.78034738  0.14885691  0.75735550     1.34870
C2362       C  0.81188837  0.08562330  0.74456813     0.84320
O2363       O  0.87766839  0.14805230  0.72294982    -0.79740
O2364       O  0.82158747  0.16233898  0.73358499    -0.90020
C2365       C  0.94517124  0.12114247  0.80312113     0.83890
O2366       O  0.80000043  0.15291728  0.81248488    -0.68220
O2367       O  0.87326294  0.08545296  0.82579574    -0.87510
C2368       C  0.83689309  0.15404167  0.82395035     0.84720
C2369       C  0.85747123  0.16098557  0.71991532     1.06290
H2370       H  0.87116162  0.11650092  0.82508435     0.38090
O2371       O  0.86195591  0.11362775  0.79679330    -1.10170
O2372       O  0.79207761  0.09665888  0.76298466    -0.66820
Ni2373     Ni  0.80718892  0.11371563  0.80153058     1.26350
O2374       O  0.86537213  0.14599689  0.80717130    -0.67050
O2375       O  0.81288495  0.09728394  0.84460079    -0.79340
C2376       C  0.72822893  0.12833477  0.80920270     0.84100
O2377       O  0.75093106  0.11610847  0.81411909    -0.66520
Ni2378     Ni  0.89140013  0.09641921  0.77638540     1.27450
Ni2379     Ni  0.86947201  0.13079757  0.76152192     1.26060
H2380       H  0.80429117  0.12398279  0.72777022     0.38650
O2381       O  0.71852013  0.11131593  0.33051382    -0.81310
O2382       O  0.90438642  0.11792143  0.31928297    -0.66000
O2383       O  0.79487713  0.12428859  0.35445312    -1.12600
C2384       C  0.79418363  0.15872119  0.23499100     1.05580
O2385       O  0.90995283  0.14404010  0.32031664    -0.79210
O2386       O  0.84472358  0.16663929  0.33056873    -0.66790
Ni2387     Ni  0.76223217  0.10605231  0.36941824     1.34870
C2388       C  0.80718695  0.16755959  0.34086996     0.84320
O2389       O  0.86326224  0.10459432  0.38226801    -0.79740
O2390       O  0.80311570  0.09707362  0.40763592    -0.90020
C2391       C  0.92262203  0.13041704  0.30748381     0.83890
O2392       O  0.77986295  0.09244301  0.32623246    -0.68220
O2393       O  0.82987978  0.16240442  0.24761438    -0.87510
C2394       C  0.80828629  0.09300861  0.30003822     0.84720
C2395       C  0.84155291  0.09537520  0.40462535     1.06290
H2396       H  0.84018037  0.12907314  0.26716336     0.38090
O2397       O  0.83732388  0.13482777  0.29354207    -1.10170
O2398       O  0.78204138  0.15640694  0.33239548    -0.66820
Ni2399     Ni  0.78178910  0.13621524  0.30263217     1.26350
O2400       O  0.83611996  0.10346246  0.30109559    -0.67050
O2401       O  0.77270328  0.14762461  0.25085304    -0.79340
C2402       C  0.70635892  0.12330617  0.30907449     0.84100
O2403       O  0.72500477  0.13642044  0.30988482    -0.66520
Ni2404     Ni  0.86864327  0.15355704  0.28592046     1.27450
Ni2405     Ni  0.85037452  0.12034539  0.33904756     1.26060
H2406       H  0.79498940  0.13156282  0.37827931     0.38650
O2407       O  0.68096041  0.14505992  0.84276421    -0.81310
O2408       O  0.99534695  0.13969583  0.82959968    -0.66000
O2409       O  0.60456709  0.13657930  0.87273708    -1.12600
C2410       C  0.60374030  0.09486330  0.77091944     1.05580
O2411       O  0.99770523  0.11497220  0.85145020    -0.79210
O2412       O  0.55593377  0.09009689  0.85425802    -0.66790
Ni2413     Ni  0.63942451  0.15458381  0.87797553     1.34870
C2414       C  0.58966800  0.09094478  0.87454147     0.84320
O2415       O  0.53824591  0.15695297  0.88840476    -0.79740
O2416       O  0.59942089  0.16624289  0.91077321    -0.90020
C2417       C  0.97903465  0.12597345  0.83115767     0.83890
O2418       O  0.62178407  0.16591868  0.82939788    -0.68220
O2419       O  0.56503601  0.09506741  0.77245127    -0.87510
C2420       C  0.59180747  0.16479164  0.80396692     0.84720
C2421       C  0.56041665  0.16700202  0.90870226     1.06290
H2422       H  0.56512881  0.12651463  0.78599751     0.38090
O2423       O  0.56465078  0.12240249  0.81462309    -1.10170
O2424       O  0.61006901  0.10383402  0.87541240    -0.66820
Ni2425     Ni  0.61814908  0.12000804  0.83298997     1.26350
O2426       O  0.56370970  0.15448203  0.80765772    -0.67050
O2427       O  0.62807069  0.10363226  0.79260953    -0.79340
C2428       C  0.69288277  0.13073630  0.83596490     0.84100
O2429       O  0.67326411  0.11898864  0.84929723    -0.66520
Ni2430     Ni  0.53090808  0.10437742  0.81272790     1.27450
Ni2431     Ni  0.55032456  0.13945615  0.85168001     1.26060
H2432       H  0.60292713  0.13193189  0.90069614     0.38650
C2433       C  0.90537964  0.05308147  0.45291212    -0.05880
C2434       C  0.87956262  0.05236594  0.41689318    -0.33310
C2435       C  0.85811876  0.06598067  0.40218096     0.35940
C2436       C  0.86129130  0.08079091  0.42362898    -0.06240
C2437       C  0.88573624  0.08150442  0.46045959    -0.33210
C2438       C  0.90721901  0.06785721  0.47538225     0.35840
H2439       H  0.87767963  0.04144398  0.39843783     0.16210
O2440       O  0.83542149  0.06484995  0.36540913    -0.60710
H2441       H  0.88880373  0.09274342  0.47733698     0.16230
O2442       O  0.93113343  0.06935629  0.51123177    -0.60800
H2443       H  0.91361948  0.06600047  0.53484147     0.43230
H2444       H  0.85534009  0.06564220  0.34229052     0.43180
C2445       C  0.53924266  0.05460881  0.40089415    -0.05880
C2446       C  0.57834034  0.06115439  0.40000579    -0.33310
C2447       C  0.58648070  0.07386931  0.37243871     0.35940
C2448       C  0.55497170  0.08029373  0.34637258    -0.06240
C2449       C  0.51539704  0.07458407  0.35019828    -0.33210
C2450       C  0.50749452  0.06172058  0.37648306     0.35840
H2451       H  0.60275615  0.05600977  0.41922567     0.16210
O2452       O  0.62540612  0.07957414  0.37022490    -0.60710
H2453       H  0.99076712  0.07936439  0.33055493     0.16230
O2454       O  0.96835206  0.05616553  0.37807222    -0.60800
H2455       H  0.96439166  0.04963219  0.35205618     0.43230
H2456       H  0.62601904  0.08911254  0.38895569     0.43180
C2457       C  0.62349700  0.05040964  0.72017188    -0.05880
C2458       C  0.60817796  0.06250339  0.69336356    -0.33310
C2459       C  0.60608154  0.07811631  0.70781641     0.35940
C2460       C  0.62029351  0.08160025  0.74884687    -0.06240
C2461       C  0.63715234  0.06972213  0.77496318    -0.33210
C2462       C  0.63730516  0.05401300  0.76154009     0.35840
H2463       H  0.59796227  0.05981341  0.66127458     0.16210
O2464       O  0.58792407  0.08969161  0.68293883    -0.60710
H2465       H  0.64654869  0.07237160  0.80737046     0.16230
O2466       O  0.65196979  0.04239458  0.78865392    -0.60800
H2467       H  0.62857931  0.03943132  0.80636454     0.43230
H2468       H  0.61064043  0.09513311  0.66869778     0.43180
C2469       C  0.75471826  0.04157470  0.70230591    -0.05880
C2470       C  0.74536869  0.04881739  0.74127709    -0.33310
C2471       C  0.76163953  0.06360958  0.75343059     0.35940
C2472       C  0.78968753  0.07141546  0.72750427    -0.06240
C2473       C  0.80026803  0.06409071  0.68892499    -0.33210
C2474       C  0.78217335  0.04953392  0.67572857     0.35840
H2475       H  0.72427461  0.04318586  0.76237579     0.16210
O2476       O  0.75031609  0.07025168  0.79128667    -0.60710
H2477       H  0.82236607  0.06973164  0.66884294     0.16230
O2478       O  0.79162557  0.04324195  0.63698963    -0.60800
H2479       H  0.81500350  0.03594226  0.64263635     0.43230
H2480       H  0.76355766  0.06356881  0.81361793     0.43180
C2481       C  0.83154888  0.05307136  0.22325939    -0.05880
C2482       C  0.79928552  0.05242090  0.25116683    -0.33310
C2483       C  0.78801059  0.06599810  0.27332564     0.35940
C2484       C  0.81064909  0.08021482  0.26865027    -0.06240
C2485       C  0.84005232  0.08117806  0.23713669    -0.33210
C2486       C  0.85042704  0.06764671  0.21416754     0.35840
H2487       H  0.78420030  0.04117090  0.25733675     0.16210
O2488       O  0.75767196  0.06470630  0.30235858    -0.60710
H2489       H  0.85700403  0.09209259  0.23224809     0.16230
O2490       O  0.88205869  0.06836161  0.18655639    -0.60800
H2491       H  0.86986528  0.07254475  0.15974384     0.43230
H2492       H  0.73236595  0.06779093  0.28671780     0.43180
C2493       C  0.01819953  0.06971538  0.19378606    -0.05880
C2494       C  0.99398018  0.06788359  0.15718822    -0.33310
C2495       C  0.97287418  0.05351137  0.14960130     0.35940
C2496       C  0.97460724  0.04087163  0.17980842    -0.06240
C2497       C  0.00033917  0.04262981  0.21549316    -0.33210
C2498       C  0.52233847  0.05673772  0.22223143     0.35840
H2499       H  0.99084019  0.07768153  0.13483755     0.16210
O2500       O  0.94942986  0.05224587  0.11330181    -0.60710
H2501       H  0.00214115  0.03329985  0.23933637     0.16230
O2502       O  0.54546718  0.05819699  0.25866441    -0.60800
H2503       H  0.57260086  0.05384398  0.25149906     0.43230
H2504       H  0.92375792  0.05801178  0.11932295     0.43180
C2505       C  0.65388608  0.04832814  0.92173465    -0.05880
C2506       C  0.61362357  0.04697558  0.90611741    -0.33310
C2507       C  0.59099985  0.06073121  0.89302100     0.35940
C2508       C  0.60862478  0.07622745  0.89489789    -0.06240
C2509       C  0.64881833  0.07732150  0.91060414    -0.33210
C2510       C  0.67107107  0.06379132  0.92359659     0.35840
H2511       H  0.59949958  0.03530425  0.90449930     0.16210
O2512       O  0.55210713  0.05876914  0.87756807    -0.60710
H2513       H  0.66412410  0.08877027  0.91162130     0.16230
O2514       O  0.71078871  0.06580692  0.93641989    -0.60800
H2515       H  0.70934281  0.06989945  0.96586773     0.43230
H2516       H  0.53448902  0.06002640  0.90252851     0.43180
C2517       C  0.80973475  0.04685876  0.92482619    -0.05880
C2518       C  0.82508336  0.04444706  0.88429092    -0.33310
C2519       C  0.83798059  0.05732608  0.86044842     0.35940
C2520       C  0.83482148  0.07295832  0.87685844    -0.06240
C2521       C  0.82328807  0.07532118  0.91885324    -0.33210
C2522       C  0.81144345  0.06221811  0.94344231     0.35840
H2523       H  0.82431788  0.03266954  0.86982398     0.16210
O2524       O  0.84913518  0.05469885  0.81929989    -0.60710
H2525       H  0.82224693  0.08729827  0.93202037     0.16230
O2526       O  0.79994945  0.06452028  0.98468867    -0.60800
H2527       H  0.77898788  0.07310005  0.98411056     0.43230
H2528       H  0.87825081  0.05155704  0.82109876     0.43180
C2529       C  0.85593151  0.19902032  0.87979908    -0.05880
C2530       C  0.88894075  0.19079343  0.86245354    -0.33310
C2531       C  0.88494555  0.17499407  0.84929454     0.35940
C2532       C  0.84700115  0.16734326  0.85240476    -0.06240
C2533       C  0.81486147  0.17528221  0.87257384    -0.33210
C2534       C  0.81894802  0.19108553  0.88568938     0.35840
H2535       H  0.91820731  0.19656637  0.85954568     0.16210
O2536       O  0.91740654  0.16765936  0.83051256    -0.60710
H2537       H  0.78543192  0.16963594  0.87536057     0.16230
O2538       O  0.78629952  0.19879948  0.90308333    -0.60800
H2539       H  0.77216594  0.20421353  0.87894623     0.43230
H2540       H  0.93294157  0.16250073  0.85411690     0.43180
C2541       C  0.98565440  0.20709274  0.94289742    -0.05880
C2542       C  0.02580160  0.20966921  0.93007860    -0.33310
C2543       C  0.55244602  0.19666495  0.92325014     0.35940
C2544       C  0.53870733  0.18076609  0.92800162    -0.06240
C2545       C  0.99946590  0.17829033  0.94297945    -0.33210
C2546       C  0.97322949  0.19112231  0.95063269     0.35840
H2547       H  0.03610744  0.22172415  0.92387769     0.16210
O2548       O  0.59047092  0.19961468  0.90813315    -0.60710
H2549       H  0.98806801  0.16621393  0.94641510     0.16230
O2550       O  0.93404518  0.18768452  0.96159922    -0.60800
H2551       H  0.93511643  0.18613655  0.99277299     0.43230
H2552       H  0.60820489  0.20070360  0.93374608     0.43180
C2553       C  0.60905902  0.20004402  0.39651033    -0.05880
C2554       C  0.63696835  0.19371117  0.36783335    -0.33310
C2555       C  0.63351468  0.17812630  0.35427218     0.35940
C2556       C  0.60095739  0.16905470  0.36860517    -0.06240
C2557       C  0.57688028  0.17449585  0.40195459    -0.33210
C2558       C  0.58096953  0.19011569  0.41625559     0.35840
H2559       H  0.66059062  0.20103476  0.35443420     0.16210
O2560       O  0.65829962  0.17268946  0.32275111    -0.60710
H2561       H  0.55194601  0.16730935  0.41320508     0.16230
O2562       O  0.55499573  0.19596860  0.44610704    -0.60800
H2563       H  0.56739956  0.19281770  0.47380104     0.43230
H2564       H  0.64600758  0.17684501  0.29591691     0.43180
C2565       C  0.78974342  0.18235824  0.36146548    -0.05880
C2566       C  0.79452977  0.19772171  0.34336388    -0.33310
C2567       C  0.77096849  0.21112072  0.35665382     0.35940
C2568       C  0.74239516  0.20952829  0.38937599    -0.06240
C2569       C  0.73884345  0.19419322  0.40798165    -0.33210
C2570       C  0.76115319  0.18084402  0.39391341     0.35840
H2571       H  0.81498655  0.19917165  0.31715274     0.16210
O2572       O  0.77529038  0.22550935  0.33641570    -0.60710
H2573       H  0.71696259  0.19220538  0.43263659     0.16230
O2574       O  0.75417690  0.16616773  0.41185368    -0.60800
H2575       H  0.72864354  0.16228479  0.39819331     0.43230
H2576       H  0.79634063  0.23130291  0.35320446     0.43180
C2577       C  0.92129169  0.20277296  0.67613062    -0.05880
C2578       C  0.92627956  0.18777324  0.65611337    -0.33310
C2579       C  0.90499681  0.17423235  0.66916682     0.35940
C2580       C  0.87715265  0.17541280  0.70223672    -0.06240
C2581       C  0.87027423  0.19049779  0.72085171    -0.33210
C2582       C  0.89217151  0.20406008  0.70831513     0.35840
H2583       H  0.94809081  0.18626610  0.63111715     0.16210
O2584       O  0.91244310  0.15979989  0.64996722    -0.60710
H2585       H  0.84918584  0.19164121  0.74668014     0.16230
O2586       O  0.88615914  0.21825067  0.72921332    -0.60800
H2587       H  0.86406313  0.22377216  0.71301060     0.43230
H2588       H  0.89183460  0.15903539  0.62668944     0.43180
C2589       C  0.57391939  0.20081505  0.70972798    -0.05880
C2590       C  0.59331427  0.20455176  0.74821407    -0.33310
C2591       C  0.60122353  0.19267872  0.77817778     0.35940
C2592       C  0.58896992  0.17677864  0.77000561    -0.06240
C2593       C  0.57195449  0.17283588  0.73029054    -0.33210
C2594       C  0.56461802  0.18479052  0.69996262     0.35840
H2595       H  0.59963297  0.21692174  0.75631533     0.16210
O2596       O  0.61699668  0.19707274  0.81702855    -0.60710
H2597       H  0.56289224  0.16063717  0.72344203     0.16230
O2598       O  0.54528169  0.18094187  0.66243097    -0.60800
H2599       H  0.51594375  0.18059261  0.66905415     0.43230
H2600       H  0.64683682  0.19755692  0.81324125     0.43180
C2601       C  0.62228414  0.20272057  0.16058045    -0.05880
C2602       C  0.59117278  0.20517029  0.19017499    -0.33310
C2603       C  0.57155761  0.19220355  0.21035066     0.35940
C2604       C  0.58277248  0.17608758  0.20189407    -0.06240
C2605       C  0.61320054  0.17363331  0.17166693    -0.33210
C2606       C  0.63225075  0.18654718  0.15090384     0.35840
H2607       H  0.58274522  0.21727127  0.19888362     0.16210
O2608       O  0.54290864  0.19555709  0.24014796    -0.60710
H2609       H  0.62318019  0.16154623  0.16470731     0.16230
O2610       O  0.66270379  0.18308613  0.12321205    -0.60800
H2611       H  0.64873257  0.18142328  0.09542953     0.43230
H2612       H  0.55833992  0.19643287  0.26738525     0.43180
C2613       C  0.75866550  0.19990204  0.17186766    -0.05880
C2614       C  0.73152750  0.19244747  0.19934942    -0.33310
C2615       C  0.73978325  0.17731386  0.21525774     0.35940
C2616       C  0.77603175  0.16961480  0.20433517    -0.06240
C2617       C  0.80123970  0.17632378  0.17364010    -0.33210
C2618       C  0.79249235  0.19142681  0.15700337     0.35840
H2619       H  0.70408395  0.19849715  0.20937063     0.16210
O2620       O  0.71460038  0.17096184  0.24500328    -0.60710
H2621       H  0.82952421  0.17046030  0.16544605     0.16230
O2622       O  0.81874764  0.19827506  0.12911440    -0.60800
H2623       H  0.81098908  0.19382907  0.10096138     0.43230
H2624       H  0.72434119  0.17541469  0.27252035     0.43180
C2625       C  0.62788760  0.91290013  0.65670988    -0.05880
C2626       C  0.60362115  0.92427684  0.63637440    -0.33310
C2627       C  0.61406897  0.94026921  0.64032724     0.35940
C2628       C  0.64315060  0.94479218  0.67179485    -0.06240
C2629       C  0.65863001  0.93321286  0.70020158    -0.33210
C2630       C  0.65028586  0.91713385  0.69321115     0.35840
H2631       H  0.58448783  0.92073453  0.60981609     0.16210
O2632       O  0.59867280  0.95103391  0.61104420    -0.60710
H2633       H  0.67894277  0.93648615  0.72620066     0.16230
O2634       O  0.67168649  0.90571986  0.71569106    -0.60800
H2635       H  0.65246165  0.90173890  0.73704147     0.43230
H2636       H  0.56864942  0.95011854  0.61162114     0.43180
C2637       C  0.65462882  0.92768952  0.49346042    -0.05880
C2638       C  0.66639169  0.94353821  0.50317431    -0.33310
C2639       C  0.64540238  0.95706701  0.48582470     0.35940
C2640       C  0.61207402  0.95520944  0.45689891    -0.06240
C2641       C  0.60164421  0.93933834  0.44584862    -0.33210
C2642       C  0.62204933  0.92587618  0.46368912     0.35840
H2643       H  0.69070376  0.94552415  0.52620447     0.16210
O2644       O  0.65747807  0.97207222  0.49818103    -0.60710
H2645       H  0.57611218  0.93722316  0.42440171     0.16230
O2646       O  0.60863705  0.91089676  0.45267449    -0.60800
H2647       H  0.62605531  0.90750658  0.42894111     0.43230
H2648       H  0.64401175  0.97400406  0.52560388     0.43180
C2649       C  0.98190033  0.92085423  0.49842956    -0.05880
C2650       C  0.95749026  0.92623341  0.46446736    -0.33310
C2651       C  0.95746477  0.94230704  0.45313901     0.35940
C2652       C  0.98260021  0.95308813  0.47580637    -0.06240
C2653       C  0.00969378  0.94720246  0.50723384    -0.33210
C2654       C  0.01003184  0.93111912  0.51784472     0.35840
H2655       H  0.93526083  0.91831810  0.44986546     0.16210
O2656       O  0.93201859  0.94735356  0.42077716    -0.60710
H2657       H  0.03083564  0.95503034  0.52380205     0.16230
O2658       O  0.03405822  0.92598468  0.55114167    -0.60800
H2659       H  0.05832816  0.92117172  0.53783362     0.43230
H2660       H  0.90645522  0.95060171  0.43466656     0.43180
C2661       C  0.97504824  0.92679540  0.65573380    -0.05880
C2662       C  0.96782947  0.94265409  0.64170617    -0.33310
C2663       C  0.99248763  0.95565397  0.65567196     0.35940
C2664       C  0.52475865  0.95324767  0.68551559    -0.06240
C2665       C  0.53003155  0.93749305  0.70140101    -0.33210
C2666       C  0.50653341  0.92447405  0.68625075     0.35840
H2667       H  0.94459978  0.94486228  0.61755315     0.16210
O2668       O  0.98524674  0.97057825  0.63898964    -0.60710
H2669       H  0.55441534  0.93492712  0.72400892     0.16230
O2670       O  0.51516460  0.90937659  0.70115992    -0.60800
H2671       H  0.53894062  0.90566613  0.68487111     0.43230
H2672       H  0.99925011  0.97062034  0.61141323     0.43180
C2673       C  0.91282165  0.79769276  0.49343801    -0.05880
C2674       C  0.90484968  0.81317643  0.47758183    -0.33310
C2675       C  0.91357247  0.82670429  0.50220887     0.35940
C2676       C  0.93135720  0.82479027  0.54275834    -0.06240
C2677       C  0.94119562  0.80931460  0.55746987    -0.33210
C2678       C  0.93205019  0.79587071  0.53330605     0.35840
H2679       H  0.88975820  0.81479332  0.44702273     0.16210
O2680       O  0.90480439  0.84164700  0.48634634    -0.60710
H2681       H  0.95487478  0.80751587  0.58864647     0.16230
O2682       O  0.94062163  0.78099078  0.54975713    -0.60800
H2683       H  0.96754184  0.77802887  0.53837051     0.43230
H2684       H  0.87551283  0.84339959  0.49185991     0.43180
C2685       C  0.77539598  0.79623998  0.44488475    -0.05880
C2686       C  0.74828075  0.80277827  0.41437282    -0.33310
C2687       C  0.73000397  0.81788400  0.42098975     0.35940
C2688       C  0.74042777  0.82690152  0.45746724    -0.06240
C2689       C  0.76854495  0.82042186  0.48688406    -0.33210
C2690       C  0.78523777  0.80528076  0.48136737     0.35840
H2691       H  0.74095326  0.79611606  0.38579106     0.15250
O2692       O  0.70201607  0.82362085  0.39192338    -0.60710
H2693       H  0.77662207  0.82683915  0.51568870     0.16230
O2694       O  0.81282507  0.79974071  0.51121862    -0.60800
H2695       H  0.79623851  0.79524088  0.53424291     0.43230
H2696       H  0.71798371  0.82994334  0.37156617     0.43180
C2697       C  0.84633307  0.80047238  0.71047399    -0.05880
C2698       C  0.88706336  0.79812700  0.69921912    -0.33310
C2699       C  0.91260968  0.81135947  0.69209701     0.35940
C2700       C  0.89725179  0.82718296  0.69543596    -0.06240
C2701       C  0.85720443  0.82941102  0.70817686    -0.33210
C2702       C  0.83190559  0.81639257  0.71534925     0.35840
H2703       H  0.89891665  0.78609454  0.69541367     0.16210
O2704       O  0.95143427  0.80867204  0.67859165    -0.60710
H2705       H  0.84451678  0.84139813  0.71007851     0.16230
O2706       O  0.79204772  0.81947273  0.72462026    -0.60800
H2707       H  0.77892764  0.82222499  0.69699661     0.43230
H2708       H  0.96844149  0.80814070  0.70486614     0.43180
C2709       C  0.68595029  0.82591509  0.60493827    -0.05880
C2710       C  0.67966699  0.80995505  0.59264038    -0.33310
C2711       C  0.68467160  0.79754316  0.62172008     0.35940
C2712       C  0.69579024  0.80095459  0.66404849    -0.06240
C2713       C  0.69769851  0.81694522  0.67753253    -0.33210
C2714       C  0.69372826  0.82944389  0.64802943     0.35840
H2715       H  0.67299895  0.80698355  0.55979260     0.16210
O2716       O  0.68168463  0.78202592  0.60774608    -0.60710
H2717       H  0.70581383  0.81972947  0.71015040     0.16230
O2718       O  0.69789304  0.84497828  0.66148846    -0.60800
H2719       H  0.72764034  0.84688388  0.66285040     0.43230
H2720       H  0.65391347  0.77860186  0.61526120     0.43180
C2721       C  0.76998627  0.67125626  0.76530231    -0.05880
C2722       C  0.78786150  0.67461395  0.72646150    -0.33310
C2723       C  0.78620950  0.69002715  0.71028205     0.35940
C2724       C  0.76661763  0.70205660  0.73358692    -0.06240
C2725       C  0.74598497  0.69810144  0.77090957    -0.33210
C2726       C  0.74690357  0.68269429  0.78630701     0.35840
H2727       H  0.80647708  0.66567847  0.71097561     0.16210
O2728       O  0.80574871  0.69336528  0.67330406    -0.60710
H2729       H  0.72897308  0.70692834  0.78859434     0.16230
O2730       O  0.73026367  0.67950440  0.82497899    -0.60800
H2731       H  0.70264892  0.67537501  0.81833347     0.43230
H2732       H  0.78697902  0.68972520  0.65030805     0.43180
C2733       C  0.80604318  0.67576115  0.92372262    -0.05880
C2734       C  0.77836866  0.67345214  0.95673942    -0.33310
C2735       C  0.75779167  0.68641243  0.97608887     0.35940
C2736       C  0.76320522  0.70240294  0.96200900    -0.06240
C2737       C  0.79210580  0.70476889  0.93003706    -0.33210
C2738       C  0.81336854  0.69178310  0.91132904     0.35840
H2739       H  0.77126598  0.66137375  0.96656730     0.16210
O2740       O  0.72987841  0.68304153  0.00650447    -0.60710
H2741       H  0.79716500  0.71673936  0.91811597     0.16230
O2742       O  0.83912398  0.69487973  0.87869177    -0.60800
H2743       H  0.82167292  0.69477157  0.85267781     0.43230
H2744       H  0.74569630  0.68272943  0.03358591     0.43180
C2745       C  0.98963886  0.33106209  0.62002548    -0.05880
C2746       C  0.51962556  0.32173775  0.60158364    -0.33310
C2747       C  0.52549091  0.30616263  0.61494659     0.35940
C2748       C  0.00228367  0.30014780  0.64876958    -0.06240
C2749       C  0.97519573  0.31020910  0.66994317    -0.33210
C2750       C  0.96879713  0.32570154  0.65565781     0.35840
H2751       H  0.53527942  0.32587177  0.57369034     0.16210
O2752       O  0.55397142  0.29701443  0.59462848    -0.60710
H2753       H  0.95828026  0.30595731  0.69681169     0.16230
O2754       O  0.93938448  0.33500659  0.67389118    -0.60800
H2755       H  0.95435425  0.34220740  0.69363896     0.43230
H2756       H  0.53973806  0.29275232  0.56903330     0.43180
C2757       C  0.96387317  0.32380517  0.46146187    -0.05880
C2758       C  0.95634725  0.30810526  0.47628240    -0.33310
C2759       C  0.97685163  0.29445605  0.45974268     0.35940
C2760       C  0.50511654  0.29605232  0.42674344    -0.06240
C2761       C  0.51048547  0.31169541  0.41035751    -0.33210
C2762       C  0.49126388  0.32531298  0.42782281     0.35840
H2763       H  0.93619103  0.30646893  0.50266981     0.16210
O2764       O  0.96994794  0.27972913  0.47723990    -0.60710
H2765       H  0.53193789  0.31365614  0.38528408     0.16230
O2766       O  0.50007193  0.34016289  0.41197239    -0.60800
H2767       H  0.52665659  0.34306629  0.42516786     0.43230
H2768       H  0.94764365  0.27504762  0.45972770     0.43180
C2769       C  0.56277039  0.67324721  0.29938693    -0.05880
C2770       C  0.53967916  0.67101387  0.26204773    -0.33310
C2771       C  0.53242855  0.68374663  0.23465370     0.35940
C2772       C  0.54813117  0.69889839  0.24491130    -0.06240
C2773       C  0.57380782  0.70091068  0.28017603    -0.33210
C2774       C  0.58172215  0.68814850  0.30725405     0.35840
H2775       H  0.52556042  0.65960138  0.25499501     0.16210
O2776       O  0.00616461  0.68171244  0.20075486    -0.60710
H2777       H  0.58589095  0.71262228  0.28798533     0.16230
O2778       O  0.60534254  0.69079622  0.34287495    -0.60800
H2779       H  0.63368970  0.68880612  0.33395315     0.43230
H2780       H  0.02345889  0.67803319  0.17721750     0.43180
C2781       C  0.51780916  0.66895890  0.45748519    -0.05880
C2782       C  0.53486221  0.68432989  0.45420151    -0.33310
C2783       C  0.01155081  0.69815548  0.46228801     0.35940
C2784       C  0.97101938  0.69671130  0.47537009    -0.06240
C2785       C  0.95532920  0.68126740  0.48197363    -0.33210
C2786       C  0.97803037  0.66753694  0.47253905     0.35840
H2787       H  0.56520834  0.68569112  0.44193476     0.16210
O2788       O  0.52843585  0.71296408  0.45671402    -0.60710
H2789       H  0.92425000  0.67978431  0.49195319     0.16230
O2790       O  0.96005310  0.65280742  0.47540667    -0.60800
H2791       H  0.96766790  0.64880065  0.50408349     0.43230
H2792       H  0.52630967  0.71504436  0.42578851     0.43180
C2793       C  0.80722610  0.67481925  0.35748100    -0.05880
C2794       C  0.82070601  0.67084756  0.39861755    -0.33310
C2795       C  0.82820152  0.68287108  0.42857202     0.35940
C2796       C  0.82339533  0.69905590  0.41692371    -0.06240
C2797       C  0.80799558  0.70298135  0.37663146    -0.33210
C2798       C  0.79957127  0.69101684  0.34702319     0.35840
H2799       H  0.82634065  0.65845679  0.40720682     0.16210
O2800       O  0.84388082  0.67876715  0.46770738    -0.60710
H2801       H  0.80459129  0.71542248  0.36733156     0.16230
O2802       O  0.78596893  0.69535644  0.30721424    -0.60800
H2803       H  0.81033008  0.69924065  0.29239480     0.43230
H2804       H  0.81987540  0.67738653  0.48586958     0.43180
C2805       C  0.90161334  0.70481118  0.19824464    -0.05880
C2806       C  0.88032465  0.69745718  0.16410106    -0.33310
C2807       C  0.85604698  0.68370240  0.17063482     0.35940
C2808       C  0.85381931  0.67692794  0.21145066    -0.06240
C2809       C  0.87442145  0.68448378  0.24515853    -0.33210
C2810       C  0.89780943  0.69809577  0.23913950     0.35840
H2811       H  0.88300259  0.70220672  0.13234095     0.16210
O2812       O  0.83590139  0.67677561  0.13696860    -0.60710
H2813       H  0.87295418  0.67958217  0.27693616     0.16230
O2814       O  0.91850645  0.70422991  0.27364434    -0.60800
H2815       H  0.94496390  0.69844934  0.27460378     0.43230
H2816       H  0.85545936  0.66894625  0.12518439     0.43180
C2817       C  0.93914638  0.32575711  0.98918095    -0.05880
C2818       C  0.90147221  0.32703449  0.96771274    -0.33310
C2819       C  0.88683639  0.31434597  0.94332526     0.35940
C2820       C  0.90972329  0.30016416  0.94057593    -0.06240
C2821       C  0.94835327  0.29914107  0.95931496    -0.33210
C2822       C  0.96325306  0.31180099  0.98372277     0.35840
H2823       H  0.88261776  0.33763108  0.97107319     0.16210
O2824       O  0.84955712  0.31569997  0.92339328    -0.60710
H2825       H  0.96627621  0.28827181  0.95642593     0.16230
O2826       O  0.00045544  0.31001781  0.00369309    -0.60800
H2827       H  0.49495870  0.30414448  0.03028918     0.43230
H2828       H  0.85533407  0.31939970  0.89426412     0.43180
C2829       C  0.90103668  0.31968924  0.14170463    -0.05880
C2830       C  0.86620280  0.32272539  0.16556205    -0.33310
C2831       C  0.83751084  0.31074121  0.17344382     0.35940
C2832       C  0.84252005  0.29502836  0.15714338    -0.06240
C2833       C  0.87780781  0.29182866  0.13382780    -0.33210
C2834       C  0.90696332  0.30389869  0.12642761     0.35840
H2835       H  0.86016691  0.33474237  0.17689042     0.16210
O2836       O  0.80286101  0.31499274  0.19433174    -0.60710
H2837       H  0.88242930  0.28002645  0.12044822     0.16230
O2838       O  0.93936681  0.30041099  0.10126161    -0.60800
H2839       H  0.96094653  0.29639430  0.12098618     0.43230
H2840       H  0.81049527  0.31463289  0.22489103     0.43180
C2841       C  0.68912632  0.30085217  0.11086332    -0.05880
C2842       C  0.69687509  0.31626064  0.12657839    -0.33310
C2843       C  0.69656770  0.32929047  0.09908444     0.35940
C2844       C  0.68731867  0.32685285  0.05592339    -0.06240
C2845       C  0.67467791  0.31173583  0.04156171    -0.33210
C2846       C  0.67557039  0.29873666  0.06876627     0.35840
H2847       H  0.70718598  0.31799158  0.15909833     0.16210
O2848       O  0.70613212  0.34420871  0.11439588    -0.60710
H2849       H  0.66660370  0.30973316  0.00850686     0.16230
O2850       O  0.66706659  0.28378844  0.05295054    -0.60800
H2851       H  0.63833944  0.28180301  0.06025525     0.43230
H2852       H  0.73628222  0.34444139  0.11610953     0.43180
C2853       C  0.73804338  0.32720884  0.90964441    -0.05880
C2854       C  0.73911842  0.32252265  0.86686339    -0.33310
C2855       C  0.75551770  0.30743500  0.85558557     0.35940
C2856       C  0.76864720  0.29649507  0.88738438    -0.06240
C2857       C  0.76433646  0.30081765  0.92985886    -0.33210
C2858       C  0.75097868  0.31609126  0.94099293     0.35840
H2859       H  0.72924669  0.33080112  0.84226869     0.16210
O2860       O  0.75990415  0.30373329  0.81357836    -0.60710
H2861       H  0.77527972  0.29288451  0.95484720     0.16230
O2862       O  0.75165341  0.32014175  0.98309359    -0.60800
H2863       H  0.78009968  0.32336191  0.98957254     0.43230
H2864       H  0.73464428  0.29800004  0.80530624     0.43180
C2865       C  0.58688851  0.67381091  0.90430506    -0.05880
C2866       C  0.57611739  0.68923368  0.88982074    -0.33310
C2867       C  0.58800492  0.70266170  0.91210879     0.35940
C2868       C  0.61113586  0.70079731  0.94933847    -0.06240
C2869       C  0.62081633  0.68544508  0.96504254    -0.33210
C2870       C  0.60892903  0.67186158  0.94238977     0.35840
H2871       H  0.55937858  0.69095395  0.86019745     0.16210
O2872       O  0.57861969  0.71756106  0.89622308    -0.60710
H2873       H  0.63946868  0.68403332  0.99352584     0.16230
O2874       O  0.61962532  0.65693427  0.95705198    -0.60800
H2875       H  0.59673837  0.65356429  0.97495208     0.43230
H2876       H  0.55380861  0.72097067  0.91124947     0.43180
C2877       C  0.59264325  0.67812730  0.74898176    -0.05880
C2878       C  0.57778100  0.69370722  0.75719752    -0.33310
C2879       C  0.59855297  0.70749564  0.74323438     0.35940
C2880       C  0.63437732  0.70594951  0.71954529    -0.06240
C2881       C  0.64830308  0.69032718  0.71038720    -0.33210
C2882       C  0.62829849  0.67665526  0.72515504     0.35840
H2883       H  0.55106097  0.69523257  0.77637776     0.16210
O2884       O  0.58403373  0.72235839  0.75380735    -0.60710
H2885       H  0.67612995  0.68862814  0.69304208     0.16230
O2886       O  0.64478410  0.66185663  0.71719581    -0.60800
H2887       H  0.63076063  0.65808253  0.69096524     0.43230
H2888       H  0.56560023  0.72549052  0.72993369     0.43180
C2889       C  0.66238525  0.33440271  0.46096104    -0.05880
C2890       C  0.62564548  0.32740870  0.47151274    -0.33310
C2891       C  0.61648211  0.31232609  0.45655788     0.35940
C2892       C  0.64260503  0.30476426  0.42770146    -0.06240
C2893       C  0.67644241  0.31280787  0.41233612    -0.33210
C2894       C  0.68696464  0.32758547  0.42959594     0.35840
H2895       H  0.60674516  0.33257063  0.49587508     0.16210
O2896       O  0.58269117  0.30483788  0.47165533    -0.60710
H2897       H  0.69596577  0.30719909  0.38928693     0.16230
O2898       O  0.72297153  0.33454932  0.41874690    -0.60800
H2899       H  0.71558766  0.34233725  0.39611430     0.43230
H2900       H  0.59091862  0.30059514  0.49994302     0.43180
C2901       C  0.63556073  0.29546847  0.66608285    -0.05880
C2902       C  0.62230252  0.31123683  0.67441241    -0.33310
C2903       C  0.64024036  0.32463718  0.65531107     0.35940
C2904       C  0.67358317  0.32279233  0.62808751    -0.06240
C2905       C  0.68821174  0.30709848  0.62111262    -0.33210
C2906       C  0.66927887  0.29357852  0.63924452     0.35840
H2907       H  0.59616930  0.31324484  0.69416724     0.16210
O2908       O  0.62455266  0.33956876  0.66336175    -0.60710
H2909       H  0.71318901  0.30520901  0.59974978     0.16230
O2910       O  0.68326926  0.27857431  0.62929764    -0.60800
H2911       H  0.70356321  0.27590837  0.65190891     0.43230
H2912       H  0.59979674  0.34047737  0.64500011     0.43180
C2913       C  0.69636426  0.42191639  0.52045835    -0.05880
C2914       C  0.67165150  0.43567508  0.52249970    -0.33310
C2915       C  0.67996414  0.44885751  0.49776375     0.35940
C2916       C  0.71232019  0.44809863  0.46978871    -0.06240
C2917       C  0.73414434  0.43387764  0.46395285    -0.33210
C2918       C  0.72659123  0.42073436  0.48954255     0.35840
H2919       H  0.64762356  0.43673521  0.54538056     0.16210
O2920       O  0.65745234  0.46264034  0.50215744    -0.60710
H2921       H  0.75908587  0.43337695  0.44198301     0.16230
O2922       O  0.74946189  0.40706230  0.48489277    -0.60800
H2923       H  0.77575496  0.40926516  0.49965903     0.43230
H2924       H  0.66818434  0.46781918  0.52834754     0.43180
C2925       C  0.89404580  0.42977668  0.44668273    -0.05880
C2926       C  0.89698731  0.43792748  0.40785340    -0.33310
C2927       C  0.87624955  0.45265414  0.40111810     0.35940
C2928       C  0.85407776  0.45984316  0.43425487    -0.06240
C2929       C  0.85384253  0.45209465  0.47369959    -0.33210
C2930       C  0.87255601  0.43721707  0.47976554     0.35840
H2931       H  0.91400599  0.43262412  0.38230899     0.16210
O2932       O  0.87782351  0.45988561  0.36216598    -0.60710
H2933       H  0.83669665  0.45705930  0.49965340     0.16230
O2934       O  0.87010912  0.43012327  0.51886712    -0.60800
H2935       H  0.84286535  0.42509342  0.51926999     0.43230
H2936       H  0.85801358  0.45401372  0.34395536     0.43180
C2937       C  0.75276468  0.55127789  0.42423057    -0.05880
C2938       C  0.77640120  0.56197358  0.44842188    -0.33310
C2939       C  0.78197642  0.57746180  0.43415710     0.35940
C2940       C  0.76329066  0.58223743  0.39595192    -0.06240
C2941       C  0.73696327  0.57216548  0.37373792    -0.33210
C2942       C  0.73275914  0.55654013  0.38656336     0.35840
H2943       H  0.79116537  0.55827822  0.47786352     0.16210
O2944       O  0.80830029  0.58741260  0.45556997    -0.60710
H2945       H  0.72359804  0.57577995  0.34344340     0.16230
O2946       O  0.70948736  0.54656593  0.36155460    -0.60800
H2947       H  0.72857024  0.54191282  0.34083504     0.43230
H2948       H  0.79078464  0.59422661  0.47348319     0.43180
C2949       C  0.57996348  0.57182846  0.40341736    -0.05880
C2950       C  0.60972910  0.57396794  0.43526551    -0.33310
C2951       C  0.62898023  0.56086300  0.45531301     0.35940
C2952       C  0.61934346  0.54487126  0.44337877    -0.06240
C2953       C  0.58824132  0.54273634  0.41254216    -0.33210
C2954       C  0.56832849  0.55598513  0.39313776     0.35840
H2955       H  0.61929593  0.58596517  0.44375356     0.16210
O2956       O  0.65877566  0.56399731  0.48518398    -0.60710
H2957       H  0.58031645  0.53076645  0.40220705     0.16230
O2958       O  0.53996925  0.55325671  0.36156970    -0.60800
H2959       H  0.51372271  0.55230090  0.37629529     0.43230
H2960       H  0.68335027  0.56660086  0.46885368     0.43180
C2961       C  0.78560992  0.45049579  0.70211570    -0.05880
C2962       C  0.79818222  0.43510399  0.71569168    -0.33310
C2963       C  0.77576489  0.42133703  0.70478899     0.35940
C2964       C  0.73918986  0.42270156  0.68103866    -0.06240
C2965       C  0.72530971  0.43814417  0.66970772    -0.33210
C2966       C  0.74829316  0.45187423  0.67947172     0.35840
H2967       H  0.82691506  0.43357974  0.73264471     0.16210
O2968       O  0.79086964  0.40655472  0.71590430    -0.60710
H2969       H  0.69778888  0.43951524  0.65054400     0.16230
O2970       O  0.73482705  0.46647755  0.66490157    -0.60800
H2971       H  0.71878217  0.47104163  0.68834650     0.43230
H2972       H  0.77807052  0.40399803  0.74327366     0.43180
C2973       C  0.83836593  0.55020705  0.73335609    -0.05880
C2974       C  0.81906344  0.54693542  0.77143823    -0.33310
C2975       C  0.80824048  0.55938112  0.79875806     0.35940
C2976       C  0.81780381  0.57543927  0.78854728    -0.06240
C2977       C  0.83575875  0.57867688  0.74952794    -0.33210
C2978       C  0.84556630  0.56624207  0.72181267     0.35840
H2979       H  0.81333440  0.53465680  0.78058461     0.16210
O2980       O  0.78968585  0.55561423  0.83603918    -0.60710
H2981       H  0.84346736  0.59084109  0.74101051     0.16230
O2982       O  0.86549677  0.56980051  0.68522677    -0.60800
H2983       H  0.84370784  0.57230787  0.66403987     0.43230
H2984       H  0.81134985  0.55092295  0.85456098     0.43180
C2985       C  0.98285342  0.55027447  0.67462928    -0.05880
C2986       C  0.51677290  0.54825444  0.70199564    -0.33310
C2987       C  0.54076718  0.56131982  0.71475905     0.35940
C2988       C  0.53086393  0.57699451  0.70089376    -0.06240
C2989       C  0.99817906  0.57897092  0.67200288    -0.33210
C2990       C  0.97478905  0.56580843  0.65829604     0.35840
H2991       H  0.52372731  0.53656678  0.71526711     0.16210
O2992       O  0.57130253  0.55879553  0.74430578    -0.60710
H2993       H  0.98976825  0.59086625  0.66114143     0.16230
O2994       O  0.94205725  0.56857092  0.63166172    -0.60800
H2995       H  0.95304709  0.56788217  0.60265985     0.43230
H2996       H  0.59542019  0.55571225  0.72769671     0.43180
C2997       C  0.94212124  0.42500072  0.58889089    -0.05880
C2998       C  0.96172033  0.43985600  0.58359534    -0.33310
C2999       C  0.95281389  0.45288668  0.60964680     0.35940
C3000       C  0.92525541  0.45100713  0.64243937    -0.06240
C3001       C  0.90740208  0.43607034  0.64948585    -0.33210
C3002       C  0.91506072  0.42316466  0.62266226     0.35840
H3003       H  0.98262677  0.44167366  0.55794286     0.16210
O3004       O  0.97106975  0.46736203  0.60285681    -0.60710
H3005       H  0.88568056  0.43464145  0.67461229     0.16230
O3006       O  0.89525629  0.40899369  0.62929998    -0.60800
H3007       H  0.86792254  0.41042462  0.61589301     0.43230
H3008       H  0.45361405  0.47283702  0.58127506     0.43180
C3009       C  0.87147973  0.57075132  0.92692789    -0.05880
C3010       C  0.88503133  0.56167785  0.89231849    -0.33310
C3011       C  0.90261797  0.54648801  0.89797357     0.35940
C3012       C  0.90907981  0.54034964  0.93916230    -0.06240
C3013       C  0.89394888  0.54916185  0.97376706    -0.33210
C3014       C  0.87467851  0.56412002  0.96778545     0.35840
H3015       H  0.88216067  0.56646004  0.86045042     0.16210
O3016       O  0.91731800  0.53857163  0.86331829    -0.60710
H3017       H  0.89895918  0.54479986  0.00580322     0.16230
O3018       O  0.86107938  0.57247517  0.00219335    -0.60800
H3019       H  0.88447346  0.57909182  0.01174632     0.43230
H3020       H  0.89376622  0.53260036  0.85137194     0.43180
C3021       C  0.54591192  0.55299256  0.90872532    -0.05880
C3022       C  0.51309591  0.56134312  0.89045103    -0.33310
C3023       C  0.51928481  0.57547901  0.86887825     0.35940
C3024       C  0.55922917  0.58114905  0.86471161    -0.06240
C3025       C  0.59155851  0.57365227  0.88713551    -0.33210
C3026       C  0.58497559  0.55951455  0.90925772     0.35840
H3027       H  0.48267601  0.55651831  0.89147263     0.16210
O3028       O  0.98670544  0.58263183  0.84848764    -0.60710
H3029       H  0.62232779  0.57813762  0.88516588     0.16230
O3030       O  0.61701630  0.55169195  0.92876281    -0.60800
H3031       H  0.62831997  0.54455131  0.90673326     0.43230
H3032       H  0.97482097  0.58995777  0.86974376     0.43180
C3033       C  0.64922247  0.45753167  0.93335512    -0.05880
C3034       C  0.65169120  0.44353273  0.90807249    -0.33310
C3035       C  0.66932820  0.42917785  0.92367579     0.35940
C3036       C  0.68664098  0.42867316  0.96480836    -0.06240
C3037       C  0.68679830  0.44269472  0.98907075    -0.33210
C3038       C  0.66789772  0.45684222  0.97441803     0.35840
H3039       H  0.63795015  0.44341663  0.87660018     0.16210
O3040       O  0.66921113  0.41576696  0.89851523    -0.60710
H3041       H  0.69928727  0.44241544  0.02113915     0.16230
O3042       O  0.66616324  0.46952322  0.00188825    -0.60800
H3043       H  0.64049322  0.46809864  0.01738216     0.43230
H3044       H  0.64323315  0.41029216  0.90437407     0.43180
C3045       C  0.50997826  0.44900026  0.93833357    -0.05880
C3046       C  0.53535474  0.44101933  0.96770887    -0.33310
C3047       C  0.02572685  0.42582249  0.98135729     0.35940
C3048       C  0.99022852  0.41851730  0.96539123    -0.06240
C3049       C  0.96676005  0.42591460  0.93331164    -0.33210
C3050       C  0.97663517  0.44114688  0.91945625     0.35840
H3051       H  0.56233828  0.44670337  0.98092045     0.16210
O3052       O  0.54913386  0.41885707  0.01292405    -0.60710
H3053       H  0.93917784  0.42034571  0.92123263     0.16230
O3054       O  0.95197309  0.44866880  0.88995607    -0.60800
H3055       H  0.96085431  0.44453133  0.86212758     0.43230
H3056       H  0.53888377  0.42336954  0.03982125     0.43180
C3057       C  0.65381889  0.44382614  0.16572292    -0.05880
C3058       C  0.68335393  0.43361013  0.18345653    -0.33310
C3059       C  0.69191438  0.41916454  0.16328161     0.35940
C3060       C  0.66874910  0.41471977  0.12725770    -0.06240
C3061       C  0.63598138  0.42393505  0.11323029    -0.33210
C3062       C  0.62919192  0.43875717  0.13101075     0.35840
H3063       H  0.70146850  0.43730680  0.21076606     0.16210
O3064       O  0.72412856  0.40990976  0.17716592    -0.60710
H3065       H  0.61900893  0.42068121  0.08466104     0.16230
O3066       O  0.60093620  0.44882041  0.11202837    -0.60800
H3067       H  0.57663318  0.44229978  0.10488125     0.43230
H3068       H  0.74875008  0.41529900  0.16659073     0.43180
C3069       C  0.97634324  0.42433494  0.12187677    -0.05880
C3070       C  0.50239215  0.42215602  0.15732607    -0.33310
C3071       C  0.52302131  0.43512594  0.17700576     0.35940
C3072       C  0.51916157  0.45106098  0.16115272    -0.06240
C3073       C  0.99271031  0.45326924  0.12578823    -0.33210
C3074       C  0.97139085  0.44025545  0.10663733     0.35840
H3075       H  0.50764293  0.41017203  0.16946899     0.16210
O3076       O  0.54859878  0.43182145  0.21078865    -0.60710
H3077       H  0.98928010  0.46510051  0.11208552     0.16230
O3078       O  0.94736302  0.44318516  0.07143619    -0.60800
H3079       H  0.96575091  0.44209331  0.04702816     0.43230
H3080       H  0.57437212  0.42810057  0.19815689     0.43180
C3081       C  0.74352232  0.54280614  0.21286413    -0.05880
C3082       C  0.72975976  0.55811959  0.19999963    -0.33310
C3083       C  0.74781082  0.57237990  0.21542154     0.35940
C3084       C  0.78219432  0.57190023  0.24320042    -0.06240
C3085       C  0.79691374  0.55649721  0.25500999    -0.33210
C3086       C  0.77767161  0.54217436  0.24070388     0.35840
H3087       H  0.70328159  0.55909402  0.17913191     0.16210
O3088       O  0.73111889  0.58678682  0.20320247    -0.60710
H3089       H  0.82245447  0.55551762  0.27707614     0.16230
O3090       O  0.79233088  0.52766349  0.25457734    -0.60800
H3091       H  0.81245237  0.52435191  0.23321283     0.43230
H3092       H  0.70692950  0.58824251  0.22116523     0.43180
C3093       C  0.60094563  0.58075205  0.24335054    -0.05880
C3094       C  0.62579124  0.56986609  0.26514423    -0.33310
C3095       C  0.63078676  0.55457710  0.24943517     0.35940
C3096       C  0.61222281  0.55041403  0.21037522    -0.06240
C3097       C  0.59065991  0.56185835  0.18642267    -0.33210
C3098       C  0.58388464  0.57698817  0.20351155     0.35840
H3099       H  0.63786745  0.57264928  0.29655556     0.16210
O3100       O  0.65265987  0.54359833  0.27312264    -0.60710
H3101       H  0.57777625  0.55884064  0.15558268     0.16230
O3102       O  0.55935058  0.58777291  0.18225835    -0.60800
H3103       H  0.53113929  0.58472794  0.18920480     0.43230
H3104       H  0.68106052  0.54752427  0.27383065     0.43180
C3105       C  0.67751519  0.80146841  0.01506805    -0.05880
C3106       C  0.64432648  0.80766105  0.03714854    -0.33310
C3107       C  0.64838446  0.82133190  0.06140548     0.35940
C3108       C  0.68633014  0.82878846  0.06445260    -0.06240
C3109       C  0.71937161  0.82303256  0.04114747    -0.33210
C3110       C  0.71479371  0.80949412  0.01552543     0.35840
H3111       H  0.61510298  0.80169601  0.03610335     0.16210
O3112       O  0.61615082  0.82648742  0.08492762    -0.60710
H3113       H  0.74872808  0.82883043  0.04361130     0.16230
O3114       O  0.74719775  0.80368169  0.99342566    -0.60800
H3115       H  0.74599271  0.80937515  0.96583871     0.43230
H3116       H  0.59963196  0.83334347  0.06544682     0.43180
C3117       C  0.65598732  0.82699438  0.22102247    -0.05880
C3118       C  0.61943240  0.82774183  0.24257338    -0.33310
C3119       C  0.59786829  0.81384150  0.25157329     0.35940
C3120       C  0.61222782  0.79859524  0.23792646    -0.06240
C3121       C  0.64990167  0.79780898  0.21786719    -0.33210
C3122       C  0.67183336  0.81184830  0.20957377     0.35840
H3123       H  0.60643324  0.83927437  0.25070094     0.16210
O3124       O  0.56086308  0.81559764  0.27045562    -0.60710
H3125       H  0.66158999  0.78640103  0.20699956     0.16230
O3126       O  0.70721004  0.81073315  0.18737879    -0.60800
H3127       H  0.69852024  0.80991065  0.15716521     0.43230
H3128       H  0.56710506  0.81604412  0.30132280     0.43180
C3129       C  0.73191969  0.94803187  0.97495210    -0.05880
C3130       C  0.69662380  0.94010330  0.96196599    -0.33310
C3131       C  0.68683473  0.92580523  0.98159451     0.35940
C3132       C  0.71366338  0.91942644  0.01261919    -0.06240
C3133       C  0.75107229  0.92643606  0.02152439    -0.33210
C3134       C  0.75967135  0.94104450  0.00404509     0.35840
H3135       H  0.67597020  0.94538730  0.93863470     0.16210
O3136       O  0.64994781  0.91881517  0.97292775    -0.60710
H3137       H  0.77151115  0.92158825  0.04578663     0.16230
O3138       O  0.79483173  0.94862373  0.01639556    -0.60800
H3139       H  0.78856718  0.95395842  0.04362349     0.43230
H3140       H  0.65569931  0.91036021  0.95176200     0.43180
C3141       C  0.70764625  0.92788141  0.18176403    -0.05880
C3142       C  0.69083183  0.94330944  0.17550050    -0.33310
C3143       C  0.70955295  0.95707528  0.19302362     0.35940
C3144       C  0.74534247  0.95566187  0.21829653    -0.06240
C3145       C  0.76002348  0.94008660  0.22731360    -0.33210
C3146       C  0.74208030  0.92642620  0.20893256     0.35840
H3147       H  0.66450363  0.94484044  0.15468224     0.16210
O3148       O  0.69352819  0.97187395  0.18365361    -0.60710
H3149       H  0.78760418  0.93848232  0.24623360     0.16230
O3150       O  0.75984307  0.91175177  0.21614979    -0.60800
H3151       H  0.74502387  0.90715252  0.24032334     0.43230
H3152       H  0.67508414  0.97435477  0.20730677     0.43180
C3153       C  0.95667190  0.82839968  0.13503575    -0.05880
C3154       C  0.92673466  0.82008447  0.15736196    -0.33310
C3155       C  0.93681647  0.80618779  0.18009970     0.35940
C3156       C  0.97683305  0.80026426  0.17925235    -0.06240
C3157       C  0.00695602  0.80896637  0.15884943    -0.33210
C3158       C  0.99742707  0.82301983  0.13743708     0.35840
H3159       H  0.89530514  0.82405851  0.15606986     0.16210
O3160       O  0.90707368  0.79800276  0.20073984    -0.60710
H3161       H  0.03829537  0.80482032  0.15942366     0.16230
O3162       O  0.02783272  0.83067388  0.11639267    -0.60800
H3163       H  0.04076739  0.83782582  0.13776855     0.43230
H3164       H  0.90512190  0.80325431  0.22883577     0.43180
C3165       C  0.54205964  0.79607526  0.96970367    -0.05880
C3166       C  0.54996165  0.81121235  0.95155060    -0.33310
C3167       C  0.52567649  0.82464094  0.95972138     0.35940
C3168       C  0.49180428  0.82329166  0.98584696    -0.06240
C3169       C  0.48289581  0.80813248  0.00314116    -0.33210
C3170       C  0.50801993  0.79469307  0.99588624     0.35840
H3171       H  0.57628106  0.81293744  0.93197601     0.16210
O3172       O  0.53615127  0.83915258  0.94289703    -0.60710
H3173       H  0.95750573  0.80686110  0.02424846     0.16230
O3174       O  0.49914028  0.78039071  0.01482439    -0.60800
H3175       H  0.01138420  0.78107923  0.04375772     0.43230
H3176       H  0.52075406  0.83990530  0.91561713     0.43180
C3177       C  0.90066653  0.91791279  0.17303199    -0.05880
C3178       C  0.86394583  0.92459101  0.15862584    -0.33310
C3179       C  0.85393638  0.94000976  0.17013014     0.35940
C3180       C  0.87979291  0.94837288  0.19845950    -0.06240
C3181       C  0.91325718  0.94068691  0.21776025    -0.33210
C3182       C  0.92406540  0.92542962  0.20485392     0.35840
H3183       H  0.84557282  0.91874507  0.13430603     0.16210
O3184       O  0.81923825  0.94682769  0.15300846    -0.60710
H3185       H  0.93212650  0.94676375  0.24120435     0.16230
O3186       O  0.95875277  0.91832922  0.22118747    -0.60800
H3187       H  0.98172991  0.92440272  0.20928645     0.43230
H3188       H  0.82684227  0.95058313  0.12441108     0.43180
C3189       C  0.91656558  0.92805013  0.01142851    -0.05880
C3190       C  0.89274890  0.92605369  0.97421671    -0.33310
C3191       C  0.87172465  0.93903777  0.95443540     0.35940
C3192       C  0.87285857  0.95475972  0.97189775    -0.06240
C3193       C  0.89717895  0.95677557  0.00897422    -0.33210
C3194       C  0.91907265  0.94380811  0.02812423     0.35840
H3195       H  0.88942659  0.91417599  0.96082717     0.16210
O3196       O  0.84814761  0.93589396  0.91910888    -0.60710
H3197       H  0.89831415  0.96840795  0.02412227     0.16230
O3198       O  0.94015501  0.94648304  0.06535739    -0.60800
H3199       H  0.96768263  0.94980425  0.05671339     0.43230
H3200       H  0.82133919  0.93266197  0.93007416     0.43180
loop_ 
_geom_bond_atom_site_label_1 
_geom_bond_atom_site_label_2 
_geom_bond_distance 
_geom_bond_site_symmetry_2 
_ccdc_geom_bond_type 
O1           C22   1.273       .  A
O1        Ni1607   1.880   1_455  S
O2           C11   1.257       .  A
O2          Ni25   1.887       .  S
O3           Ni7   1.909       .  S
O3          Ni25   1.873       .  S
O3          Ni19   1.922       .  S
O3           H26   0.966       .  S
C4           O21   1.276       .  A
C4           O13   1.277       .  A
C4         C3168   1.491   1_554  S
O5           C11   1.270       .  A
O5          Ni24   1.930       .  S
O6            C8   1.262       .  A
O6          Ni24   1.893       .  S
Ni7          O10   1.879       .  S
Ni7          O12   1.959       .  S
Ni7        O1601   1.880       .  S
C8           O18   1.265       .  A
C8         C1553   1.470       .  S
O9           C15   1.267       .  A
O9          Ni25   1.881       .  S
O10          C15   1.268       .  A
C11          C37   1.469       .  S
O12          C14   1.284       .  A
O13         Ni24   1.939       .  S
C14          O20   1.281       .  A
C14        C1589   1.528       .  S
C15        C1577   1.432       .  S
H16          O17   0.966       .  S
O17         Ni25   1.929       .  S
O17         Ni19   1.926       .  S
O17         Ni24   1.938       .  S
O18         Ni19   1.910       .  S
Ni19         O21   1.915       .  S
Ni19       O1623   1.915       .  S
O20         Ni25   1.957       .  S
C22          O23   1.262       .  A
C22          C48   1.483       .  S
O23       Ni1619   1.915   1_455  S
O27          C48   1.270       .  A
O27         Ni33   1.876       .  S
O28          C37   1.264       .  A
O28         Ni51   1.902       .  S
O29         Ni33   1.893       .  S
O29         Ni51   1.862       .  S
O29         Ni45   1.906       .  S
O29          H52   0.967       .  S
C30          O47   1.277       .  A
C30          O39   1.275       .  A
C30        C1517   1.477       .  S
O31          C37   1.266       .  A
O31         Ni50   1.918       .  S
O32          C34   1.262       .  A
O32         Ni50   1.883       .  S
Ni33         O36   1.885       .  S
Ni33         O38   1.934       .  S
C34          O44   1.266       .  A
C34        C1508   1.445       .  S
O35          C41   1.271       .  A
O35         Ni51   1.881       .  S
O36          C41   1.272       .  A
O38          C40   1.278       .  A
O39         Ni50   1.918       .  S
C40          O46   1.279       .  A
C40        C1541   1.504       .  S
C41        C1532   1.425       .  S
H42          O43   0.966       .  S
O43         Ni51   1.930       .  S
O43         Ni45   1.922       .  S
O43         Ni50   1.923       .  S
O44         Ni45   1.902       .  S
Ni45         O49   1.923       .  S
Ni45         O47   1.921       .  S
O46         Ni51   1.946       .  S
C48          O49   1.270       .  A
O53          C74   1.271       .  A
O53         Ni59   1.921       .  S
O54          C63   1.267       .  A
O54         Ni77   1.908       .  S
O55         Ni59   1.910       .  S
O55         Ni77   1.899       .  S
O55         Ni71   1.945       .  S
O55          H78   0.966       .  S
C56          O73   1.289       .  A
C56          O65   1.280       .  A
C56        C1472   1.534       .  S
O57          C63   1.276       .  A
O57         Ni76   1.936       .  S
O58          C60   1.266       .  A
O58         Ni76   1.894       .  S
Ni59         O62   1.938       .  S
Ni59         O64   1.887       .  S
C60          O70   1.263       .  A
C60        C1457   1.445       .  S
O61          C67   1.286       .  A
O61         Ni77   1.972       .  S
O62          C67   1.279       .  A
C63         C141   1.468       .  S
O64          C66   1.265       .  A
O65         Ni76   1.952       .  S
C66          O72   1.267       .  A
C66        C1496   1.440       .  S
C67        C1481   1.520       .  S
H68          O69   0.966       .  S
O69         Ni77   1.941       .  S
O69         Ni71   1.901       .  S
O69         Ni76   1.911       .  S
O70         Ni71   1.880       .  S
Ni71         O75   1.913       .  S
Ni71         O73   1.970       .  S
O72         Ni77   1.892       .  S
C74          O75   1.265       .  A
C74         C100   1.461       .  S
O79         C100   1.264       .  A
O79         Ni85   1.907       .  S
O80          C89   1.271       .  A
O80       Ni1703   1.928       .  S
O81         Ni85   1.915   1_556  S
O81        Ni103   1.910   1_455  S
O81         Ni97   1.912       .  S
O81         H104   0.966   1_455  S
C82          O99   1.272       .  A
C82          O91   1.274       .  A
C82        C1433   1.512       .  S
O83          C89   1.274       .  A
O83       Ni1702   1.934       .  S
O84          C86   1.264       .  A
O84        Ni102   1.876       .  S
Ni85         O90   1.888   1_554  S
Ni85       O1688   1.917   1_454  S
C86          O96   1.273       .  A
C86        C1445   1.443       .  S
O87          C93   1.280       .  A
O87       Ni1703   1.934       .  S
O88          C93   1.271       .  A
O88       Ni1685   1.917   1_556  S
C89         C115   1.487       .  S
O90          C92   1.262       .  A
O91        Ni102   1.949       .  S
C92          O98   1.270       .  A
C92        C1421   1.440       .  S
C93        C1412   1.488       .  S
H94          O95   0.966       .  S
O95        Ni103   1.951   1_455  S
O95         Ni97   1.928       .  S
O95        Ni102   1.927       .  S
O96         Ni97   1.911       .  S
Ni97        O101   1.921   1_556  S
Ni97         O99   1.924       .  S
O98        Ni103   1.906   1_455  S
C100        O101   1.267       .  A
Ni102      O1683   1.926       .  S
Ni103      O1680   1.928       .  S
Ni103      O1687   1.932       .  S
O105        C126   1.276       .  A
O105       Ni111   1.942       .  S
O106        C115   1.271       .  A
O106       Ni129   1.929       .  S
O107       Ni111   1.908       .  S
O107       Ni129   1.910       .  S
O107       Ni123   1.926       .  S
O107        H130   0.966       .  S
C108        O125   1.281       .  A
C108        O117   1.281       .  A
C108       C1361   1.501       .  S
O109        C115   1.275       .  A
O109       Ni128   1.944       .  S
O110        C112   1.266       .  A
O110       Ni128   1.893       .  S
Ni111       O114   1.940       .  S
Ni111       O116   1.899       .  S
C112        O122   1.272       .  A
C112       C1400   1.457       .  S
O113        C119   1.279       .  A
O113       Ni129   1.926       .  S
O114        C119   1.280       .  A
O116        C118   1.268       .  A
O117       Ni128   1.939       .  S
C118        O124   1.274       .  A
C118       C1373   1.470       .  S
C119       C1385   1.501       .  S
H120        O121   0.966       .  S
O121       Ni129   1.921       .  S
O121       Ni123   1.910       .  S
O121       Ni128   1.908       .  S
O122       Ni123   1.923       .  S
Ni123       O127   1.932       .  S
Ni123       O125   1.933       .  S
O124       Ni129   1.927       .  S
C126        O127   1.271       .  A
C126        C152   1.489       .  S
O131        C152   1.272       .  A
O131       Ni137   1.927       .  S
O132        C141   1.269       .  A
O132       Ni155   1.925       .  S
O133       Ni137   1.908       .  S
O133       Ni155   1.923       .  S
O133       Ni149   1.940       .  S
O133        H156   0.966       .  S
C134        O151   1.281       .  A
C134        O143   1.275       .  A
C134       C1328   1.494       .  S
O135        C141   1.267       .  A
O135       Ni154   1.921       .  S
O136        C138   1.264       .  A
O136       Ni154   1.884       .  S
Ni137       O140   1.939       .  S
Ni137       O142   1.884       .  S
C138        O148   1.269       .  A
C138       C1316   1.434       .  S
O139        C145   1.279       .  A
O139       Ni155   1.938       .  S
O140        C145   1.275       .  A
O142        C144   1.266       .  A
O143       Ni154   1.924       .  S
C144        O150   1.264       .  A
C144       C1337   1.447       .  S
C145       C1352   1.512       .  S
H146        O147   0.966       .  S
O147       Ni155   1.921       .  S
O147       Ni149   1.896       .  S
O147       Ni154   1.905       .  S
O148       Ni149   1.893       .  S
Ni149       O153   1.934       .  S
Ni149       O151   1.931       .  S
O150       Ni155   1.885       .  S
C152        O153   1.275       .  A
O157        C178   1.271       .  A
O157       Ni163   1.884       .  S
O158        C167   1.260       .  A
O158       Ni181   1.891       .  S
O159       Ni163   1.902       .  S
O159       Ni181   1.863       .  S
O159       Ni175   1.913       .  S
O159        H182   0.967       .  S
C160        O177   1.274       .  A
C160        O169   1.277       .  A
C160       C1364   1.494       .  S
O161        C167   1.268       .  A
O161       Ni180   1.933       .  S
O162        C164   1.260       .  A
O162       Ni180   1.865       .  S
Ni163       O166   1.891       .  S
Ni163       O168   1.945       .  S
C164        O174   1.266       .  A
C164       C1313   1.455       .  S
O165        C171   1.272       .  A
O165       Ni181   1.894       .  S
O166        C171   1.271       .  A
C167        C323   1.474       .  S
O168        C170   1.280       .  A
O169       Ni180   1.936       .  S
C170        O176   1.276       .  A
C170       C1304   1.511       .  S
C171       C1289   1.438       .  S
H172        O173   0.966       .  S
O173       Ni181   1.942       .  S
O173       Ni175   1.931       .  S
O173       Ni180   1.935       .  S
O174       Ni175   1.904       .  S
Ni175       O179   1.910       .  S
Ni175       O177   1.921       .  S
O176       Ni181   1.940       .  S
C178        O179   1.265       .  A
C178        C334   1.474       .  S
O183        C204   1.264       .  A
O183       Ni189   1.903       .  S
O184        C193   1.259       .  A
O184      Ni1807   1.911       .  S
O185       Ni189   1.938       .  S
O185       Ni207   1.933       .  S
O185       Ni201   1.961       .  S
O185        H208   0.966       .  S
C186        O203   1.279       .  A
C186        O195   1.266       .  A
C186       C1265   1.450       .  S
O187        C193   1.268       .  A
O187      Ni1806   1.877       .  S
O188        C190   1.281       .  A
O188       Ni206   1.938       .  S
Ni189       O192   1.929       .  S
Ni189       O194   1.873       .  S
C190        O200   1.279       .  A
C190       C1277   1.503       .  S
O191        C197   1.268       .  A
O191       Ni207   1.917       .  S
O192        C197   1.270       .  A
C193        C349   1.478       .  S
O194        C196   1.261       .  A
O195       Ni206   1.869       .  S
C196        O202   1.267       .  A
C196       C1424   1.456       .  S
C197       C1388   1.494       .  S
H198        O199   0.967       .  S
O199       Ni207   1.920       .  S
O199       Ni201   1.875       .  S
O199       Ni206   1.905       .  S
O200       Ni201   1.942       .  S
Ni201       O205   1.913       .  S
Ni201       O203   1.923       .  S
O202       Ni207   1.905       .  S
C204        O205   1.269       .  A
C204        C360   1.470       .  S
Ni206      O1787   1.877   1_455  S
Ni207      O1784   1.911   1_455  S
O209        C230   1.271       .  A
O209       Ni215   1.883       .  S
O210        C219   1.264       .  A
O210       Ni233   1.891       .  S
O211       Ni215   1.877       .  S
O211       Ni233   1.852       .  S
O211       Ni227   1.897   1_554  S
O211        H234   0.967       .  S
C212        O229   1.276       .  A
C212        O221   1.280       .  A
C212       C1253   1.490       .  S
O213        C219   1.272   1_556  A
O213       Ni232   1.942       .  S
O214        C216   1.262   1_556  A
O214       Ni232   1.876       .  S
Ni215       O218   1.892       .  S
Ni215       O220   1.931       .  S
C216        O226   1.271       .  A
C216       C1244   1.454       .  S
O217        C223   1.276       .  A
O217       Ni233   1.892       .  S
O218        C223   1.275       .  A
C219        C245   1.477       .  S
O220        C222   1.276   1_554  A
O221       Ni232   1.938       .  S
C222        O228   1.278       .  A
C222       C1436   1.494       .  S
C223       C1460   1.430       .  S
H224        O225   0.966       .  S
O225       Ni233   1.933   1_556  S
O225       Ni227   1.913       .  S
O225       Ni232   1.918       .  S
O226       Ni227   1.919   1_554  S
Ni227       O231   1.914   1_556  S
Ni227       O229   1.922       .  S
O228       Ni233   1.945   1_556  S
C230        O231   1.273       .  A
C230        C256   1.468       .  S
O235        C256   1.272       .  A
O235       Ni241   1.885       .  S
O236        C245   1.257       .  A
O236      Ni1859   1.879   1_455  S
O237       Ni241   1.907       .  S
O237       Ni259   1.871       .  S
O237       Ni253   1.923       .  S
O237        H260   0.966       .  S
C238        O255   1.273       .  A
C238        O247   1.285       .  A
C238       C1229   1.506       .  S
O239        C245   1.276       .  A
O239      Ni1858   1.954       .  S
O240        C242   1.258       .  A
O240       Ni258   1.877       .  S
Ni241       O244   1.884   1_554  S
Ni241       O246   1.952       .  S
C242        O252   1.270       .  A
C242       C1217   1.472   1_554  S
O243        C249   1.270   1_554  A
O243       Ni259   1.893       .  S
O244        C249   1.270       .  A
O246        C248   1.281       .  A
O247       Ni258   1.971       .  S
C248        O254   1.281       .  A
C248       C1469   1.526       .  S
C249       C1448   1.442       .  S
H250        O251   0.966       .  S
O251       Ni259   1.932       .  S
O251       Ni253   1.916       .  S
O251       Ni258   1.935       .  S
O252       Ni253   1.924       .  S
Ni253       O257   1.901       .  S
Ni253       O255   1.907       .  S
O254       Ni259   1.956       .  S
C256        O257   1.259       .  A
Ni258      O1839   1.953       .  S
Ni259      O1836   1.879       .  S
O261        C282   1.276       .  A
O261       Ni267   1.960       .  S
O262        C271   1.269       .  A
O262       Ni285   1.908       .  S
O263       Ni267   1.925       .  S
O263       Ni285   1.908       .  S
O263       Ni279   1.922       .  S
O263        H286   0.966       .  S
C264        O281   1.270       .  A
C264        O273   1.273       .  A
C264       C1340   1.420       .  S
O265        C271   1.276       .  A
O265       Ni284   1.897       .  S
O266        C268   1.282       .  A
O266       Ni284   1.953       .  S
Ni267       O270   1.954       .  S
Ni267       O272   1.888       .  S
C268        O278   1.280       .  A
C268       C1484   1.529       .  S
O269        C275   1.276       .  A
O269       Ni285   1.909       .  S
O270        C275   1.285       .  A
C271        C297   1.469       .  S
O272        C274   1.262       .  A
O273       Ni284   1.885       .  S
C274        O280   1.272       .  A
C274       C1193   1.470       .  S
C275       C1208   1.489       .  S
H276        O277   0.966       .  S
O277       Ni285   1.900       .  S
O277       Ni279   1.859       .  S
O277       Ni284   1.883       .  S
O278       Ni279   1.952       .  S
Ni279       O283   1.873       .  S
Ni279       O281   1.883       .  S
O280       Ni285   1.931       .  S
C282        O283   1.257       .  A
C282        C308   1.476       .  S
O287        C308   1.271       .  A
O287       Ni293   1.945       .  S
O288        C297   1.271       .  A
O288      Ni1911   1.914       .  S
O289       Ni293   1.917       .  S
O289       Ni311   1.905       .  S
O289       Ni305   1.921       .  S
O289        H312   0.966       .  S
C290        O307   1.271       .  A
C290        O299   1.274       .  A
C290       C1493   1.427       .  S
O291        C297   1.272       .  A
O291      Ni1910   1.896       .  S
O292        C294   1.277       .  A
O292       Ni310   1.933       .  S
Ni293       O296   1.932       .  S
Ni293       O298   1.877       .  S
C294        O304   1.279       .  A
C294       C1349   1.500       .  S
O295        C301   1.278       .  A
O295       Ni311   1.921       .  S
O296        C301   1.282       .  A
O298        C300   1.260       .  A
O299       Ni310   1.895       .  S
C300        O306   1.269       .  A
C300       C1169   1.461       .  S
C301       C1181   1.481       .  S
H302        O303   0.967       .  S
O303       Ni311   1.902       .  S
O303       Ni305   1.865       .  S
O303       Ni310   1.885       .  S
O304       Ni305   1.943       .  S
Ni305       O309   1.885       .  S
Ni305       O307   1.890       .  S
O306       Ni311   1.910       .  S
C308        O309   1.264       .  A
Ni310      O1891   1.896   1_455  S
Ni311      O1888   1.914   1_455  S
O313        C334   1.276       .  A
O313       Ni319   1.889       .  S
O314        C323   1.260       .  A
O314      Ni1937   1.882   1_455  S
O315       Ni319   1.888       .  S
O315       Ni337   1.861       .  S
O315       Ni331   1.907       .  S
O315        H338   0.966       .  S
C316        O333   1.278       .  A
C316        O325   1.283       .  A
C316       C1325   1.492       .  S
O317        C323   1.274       .  A
O317      Ni1936   1.949   1_455  S
O318        C320   1.264       .  A
O318       Ni336   1.892       .  S
Ni319       O322   1.879       .  S
Ni319       O324   1.950       .  S
C320        O330   1.271       .  A
C320       C1397   1.479       .  S
O321        C327   1.272       .  A
O321       Ni337   1.890       .  S
O322        C327   1.272       .  A
O324        C326   1.282       .  A
O325       Ni336   1.945       .  S
C326        O332   1.280       .  A
C326       C1157   1.522       .  S
C327       C1145   1.425       .  S
H328        O329   0.966       .  S
O329       Ni337   1.928       .  S
O329       Ni331   1.909       .  S
O329       Ni336   1.921       .  S
O330       Ni331   1.926       .  S
Ni331       O335   1.909       .  S
Ni331       O333   1.918       .  S
O332       Ni337   1.952       .  S
C334        O335   1.269       .  A
Ni336      O1917   1.949       .  S
Ni337      O1914   1.882       .  S
O339        C360   1.276       .  A
O339       Ni345   1.944       .  S
O340        C349   1.273       .  A
O340       Ni363   1.913       .  S
O341       Ni345   1.908       .  S
O341       Ni363   1.908       .  S
O341       Ni357   1.920       .  S
O341        H364   0.966       .  S
C342        O359   1.269       .  A
C342        O351   1.272       .  A
C342       C1121   1.418       .  S
O343        C349   1.278       .  A
O343       Ni362   1.898       .  S
O344        C346   1.284       .  A
O344       Ni362   1.956       .  S
Ni345       O348   1.936       .  S
Ni345       O350   1.901       .  S
C346        O356   1.275       .  A
C346       C1133   1.521       .  S
O347        C353   1.281       .  A
O347       Ni363   1.928       .  S
O348        C353   1.282       .  A
O350        C352   1.265       .  A
O351       Ni362   1.881       .  S
C352        O358   1.273       .  A
C352       C1376   1.481       .  S
C353       C1409   1.484       .  S
H354        O355   0.967       .  S
O355       Ni363   1.904       .  S
O355       Ni357   1.865       .  S
O355       Ni362   1.887       .  S
O356       Ni357   1.941       .  S
Ni357       O361   1.881       .  S
Ni357       O359   1.884       .  S
O358       Ni363   1.930       .  S
C360        O361   1.255       .  A
O365        C386   1.274       .  A
O365       Ni371   1.947       .  S
O366        C375   1.275       .  A
O366       Ni389   1.957       .  S
O367       Ni389   1.925       .  S
O367      Ni1971   1.922       .  S
O367      Ni1983   1.937       .  S
O367        H390   0.966       .  S
C368        O385   1.286       .  A
C368        O377   1.272       .  A
C368       C1520   1.494       .  S
O369        C375   1.268       .  A
O369      Ni1988   1.921       .  S
O370        C372   1.267       .  A
O370      Ni1988   1.900       .  S
Ni371       O376   1.886       .  S
Ni371      O1974   1.948   1_455  S
Ni371      O1967   1.922   1_455  S
C372        O382   1.272       .  A
C372       C1556   1.458       .  S
O373        C379   1.274       .  A
O373       Ni389   1.910       .  S
O374        C379   1.279       .  A
O374      Ni1971   1.948       .  S
C375        C453   1.498       .  S
O376        C378   1.265       .  A
O377       Ni388   1.907       .  S
C378        O384   1.270       .  A
C378       C1172   1.443       .  S
C379       C1205   1.500       .  S
H380        O381   0.966       .  S
O381       Ni383   1.923       .  S
O381       Ni388   1.899       .  S
O381      Ni1989   1.905   1_455  S
O382      Ni1983   1.913       .  S
Ni383       O387   1.958       .  S
Ni383       O385   1.943       .  S
Ni383      O1982   1.913       .  S
Ni383      O1967   1.937   1_455  S
O384      Ni1989   1.900   1_455  S
C386        O387   1.281       .  A
C386        C412   1.507       .  S
Ni388      O1969   1.921   1_455  S
Ni388      O1970   1.900   1_455  S
Ni389      O1984   1.900       .  S
Ni389      O1981   1.905       .  S
O391        C412   1.280       .  A
O391       Ni397   1.963       .  S
O392        C401   1.277       .  A
O392       Ni415   1.958       .  S
O393       Ni397   1.929       .  S
O393       Ni415   1.946   1_554  S
O393       Ni409   1.965   1_554  S
O393        H416   0.966       .  S
C394        O411   1.287       .  A
C394        O403   1.274       .  A
C394       C1565   1.500       .  S
O395        C401   1.261       .  A
O395       Ni414   1.899       .  S
O396        C398   1.263       .  A
O396       Ni414   1.899       .  S
Ni397       O400   1.966       .  S
Ni397       O402   1.876       .  S
C398        O408   1.263   1_556  A
C398       C1505   1.446   1_556  S
O399        C405   1.277       .  A
O399       Ni415   1.941       .  S
O400        C405   1.282   1_554  A
C401        C427   1.488       .  S
O402        C404   1.266   1_554  A
O403       Ni414   1.910       .  S
C404        O410   1.276       .  A
C404       C1268   1.441       .  S
C405       C1136   1.529       .  S
H406        O407   0.966       .  S
O407       Ni415   1.914       .  S
O407       Ni409   1.899       .  S
O407       Ni414   1.912       .  S
O408       Ni409   1.888   1_554  S
Ni409       O413   1.933   1_556  S
Ni409       O411   1.952       .  S
O410       Ni415   1.912       .  S
C412        O413   1.269       .  A
O417        C438   1.266       .  A
O417       Ni423   1.908       .  S
O418        C427   1.265       .  A
O418       Ni441   1.932       .  S
O419       Ni423   1.926       .  S
O419       Ni441   1.940       .  S
O419       Ni435   1.966       .  S
O419        H442   0.966       .  S
C420        O437   1.285       .  A
C420        O429   1.271       .  A
C420       C1097   1.493       .  S
O421        C427   1.272       .  A
O421       Ni440   1.928       .  S
O422        C424   1.275       .  A
O422       Ni440   1.920       .  S
Ni423       O426   1.931       .  S
Ni423       O428   1.880       .  S
C424        O434   1.272       .  A
C424       C1112   1.467       .  S
O425        C431   1.275       .  A
O425       Ni441   1.943       .  S
O426        C431   1.270       .  A
O428        C430   1.264       .  A
O429       Ni440   1.907       .  S
C430        O436   1.265       .  A
C430       C1124   1.447       .  S
C431       C1280   1.507       .  S
H432        O433   0.966       .  S
O433       Ni441   1.911       .  S
O433       Ni435   1.914       .  S
O433       Ni440   1.910       .  S
O434       Ni435   1.908       .  S
Ni435       O439   1.959       .  S
Ni435       O437   1.950       .  S
O436       Ni441   1.880       .  S
C438        O439   1.279       .  A
C438        C464   1.499       .  S
O443        C464   1.279       .  A
O443       Ni449   1.947       .  S
O444        C453   1.278       .  A
O444       Ni467   1.964       .  S
O445       Ni449   1.900       .  S
O445       Ni467   1.922       .  S
O445       Ni461   1.913       .  S
O445        H468   0.966       .  S
C446        O463   1.276       .  A
C446        O455   1.276       .  A
C446       C1085   1.478       .  S
O447        C453   1.270       .  A
O447       Ni466   1.919       .  S
O448        C450   1.268       .  A
O448       Ni466   1.905       .  S
Ni449       O452   1.931       .  S
Ni449       O454   1.905       .  S
C450        O460   1.270       .  A
C450       C1073   1.467       .  S
O451        C457   1.283       .  A
O451       Ni467   1.932       .  S
O452        C457   1.279       .  A
O454        C456   1.269       .  A
O455       Ni466   1.926       .  S
C456        O462   1.271       .  A
C456       C1196   1.460       .  S
C457       C1184   1.489       .  S
H458        O459   0.966       .  S
O459       Ni467   1.928       .  S
O459       Ni461   1.906       .  S
O459       Ni466   1.902       .  S
O460       Ni461   1.907       .  S
Ni461       O465   1.940       .  S
Ni461       O463   1.914       .  S
O462       Ni467   1.913       .  S
C464        O465   1.271       .  A
O469        C490   1.279       .  A
O469       Ni475   1.912       .  S
O470        C479   1.261       .  A
O470      Ni2093   1.872   1_455  S
O471       Ni475   1.888       .  S
O471       Ni493   1.867       .  S
O471       Ni487   1.903       .  S
O471        H494   0.967       .  S
C472        O489   1.280       .  A
C472        O481   1.281       .  A
C472       C1100   1.483       .  S
O473        C479   1.269       .  A
O473      Ni2092   1.936   1_455  S
O474        C476   1.263       .  A
O474       Ni492   1.880       .  S
Ni475       O478   1.887       .  S
Ni475       O480   1.955       .  S
C476        O486   1.274       .  A
C476       C1076   1.470       .  S
O477       C2083   1.275       .  A
O477      Ni2093   1.904       .  S
O478        C483   1.273       .  A
C479        C505   1.459       .  S
O480        C482   1.284       .  A
O481       Ni492   1.929       .  S
C482        O488   1.277       .  A
C482       C1061   1.519       .  S
C483       O2077   1.275       .  A
C483       C1049   1.436       .  S
H484        O485   0.966       .  S
O485       Ni493   1.920       .  S
O485       Ni487   1.901       .  S
O485       Ni492   1.917       .  S
O486       Ni487   1.934       .  S
Ni487       O491   1.909       .  S
Ni487       O489   1.921       .  S
O488       Ni493   1.945       .  S
C490        O491   1.272       .  A
C490        C516   1.477       .  S
Ni492      O2073   1.936       .  S
Ni493      O2070   1.872       .  S
Ni493      O2077   1.904       .  S
O495        C516   1.282       .  A
O495       Ni501   1.920       .  S
O496        C505   1.252       .  A
O496       Ni519   1.860       .  S
O497       Ni501   1.879       .  S
O497       Ni519   1.864       .  S
O497       Ni513   1.889       .  S
O497        H520   0.966       .  S
C498        O515   1.281       .  A
C498        O507   1.280       .  A
C498       C1088   1.483       .  S
O499        C505   1.270       .  A
O499       Ni518   1.946       .  S
O500        C502   1.265       .  A
O500       Ni518   1.896       .  S
Ni501       O504   1.898       .  S
Ni501       O506   1.963       .  S
C502        O512   1.272       .  A
C502       C1109   1.473       .  S
O503        C509   1.267       .  A
O503       Ni519   1.882       .  S
O504        C509   1.279       .  A
O506        C508   1.284       .  A
O507       Ni518   1.928       .  S
C508        O514   1.276       .  A
C508       C1037   1.529       .  S
C509       C1025   1.434       .  S
H510        O511   0.966       .  S
O511       Ni519   1.904       .  S
O511       Ni513   1.904       .  S
O511       Ni518   1.923       .  S
O512       Ni513   1.932       .  S
Ni513       O517   1.910       .  S
Ni513       O515   1.916       .  S
O514       Ni519   1.943       .  S
C516        O517   1.275       .  A
O521        C542   1.280       .  A
O521       Ni527   1.950       .  S
O522        C531   1.272       .  A
O522       Ni545   1.936       .  S
O523       Ni527   1.920       .  S
O523       Ni545   1.933       .  S
O523       Ni539   1.959       .  S
O523        H546   0.966       .  S
C524        O541   1.282       .  A
C524        O533   1.276       .  A
C524       C1232   1.511       .  S
O525        C531   1.268       .  A
O525       Ni544   1.926       .  S
O526        C528   1.264       .  A
O526       Ni544   1.889       .  S
Ni527       O530   1.970       .  S
Ni527       O532   1.888       .  S
C528        O538   1.266       .  A
C528       C1241   1.449       .  S
O529        C535   1.278       .  A
O529       Ni545   1.943       .  S
O530        C535   1.281       .  A
C531        C583   1.481       .  S
O532        C534   1.267       .  A
O533       Ni544   1.929       .  S
C534        O540   1.274       .  A
C534       C1013   1.452       .  S
C535       C1001   1.529       .  S
H536        O537   0.966       .  S
O537       Ni545   1.920       .  S
O537       Ni539   1.913       .  S
O537       Ni544   1.918       .  S
O538       Ni539   1.892       .  S
Ni539       O543   1.934       .  S
Ni539       O541   1.951       .  S
O540       Ni545   1.915       .  S
C542        O543   1.269       .  A
C542        C620   1.499       .  S
O547        C568   1.273       .  A
O547       Ni553   1.931       .  S
O548        C557   1.271       .  A
O548       Ni571   1.936       .  S
O549       Ni553   1.919       .  S
O549       Ni565   1.922       .  S
O549      Ni2171   1.916   1_455  S
O549       H2172   0.966   1_455  S
C550        O567   1.275       .  A
C550        O559   1.278       .  A
C550       C1301   1.514       .  S
O551        C557   1.274       .  A
O551      Ni2170   1.939       .  S
O552        C554   1.264       .  A
O552      Ni2170   1.882       .  S
Ni553       O558   1.905       .  S
Ni553      O2156   1.924   1_455  S
C554       O2164   1.262       .  A
C554       C1148   1.447       .  S
O555        C561   1.274       .  A
O555       Ni571   1.926       .  S
O556        C561   1.272       .  A
O556      Ni2153   1.924       .  S
C557        C609   1.495       .  S
O558        C560   1.272       .  A
O559       Ni570   1.956       .  S
C560        O566   1.274       .  A
C560        C989   1.456       .  S
C561        C977   1.497       .  S
H562        O563   0.966       .  S
O563       Ni565   1.930       .  S
O563       Ni570   1.927       .  S
O563      Ni2171   1.941   1_455  S
O564       C2154   1.262       .  A
O564       Ni565   1.885       .  S
Ni565       O569   1.921       .  S
Ni565       O567   1.933       .  S
O566      Ni2171   1.916   1_455  S
C568        O569   1.263       .  A
C568        C594   1.475       .  S
Ni570      O2151   1.939   1_455  S
Ni570      O2152   1.882       .  S
Ni571      O2166   1.916       .  S
Ni571      O2149   1.916       .  S
Ni571      O2163   1.941       .  S
H572       O2149   0.966       .  S
O573        C594   1.262       .  A
O573       Ni579   1.895       .  S
O574        C583   1.267       .  A
O574       Ni597   1.922       .  S
O575       Ni579   1.923       .  S
O575       Ni597   1.930       .  S
O575       Ni591   1.959       .  S
O575        H598   0.966       .  S
C576        O593   1.286       .  A
C576        O585   1.276       .  A
C576       C1160   1.531       .  S
O577        C583   1.273       .  A
O577       Ni596   1.933       .  S
O578        C580   1.267       .  A
O578       Ni596   1.891       .  S
Ni579       O582   1.929       .  S
Ni579       O584   1.877       .  S
C580        O590   1.271       .  A
C580       C1292   1.444       .  S
O581        C587   1.280       .  A
O581       Ni597   1.963       .  S
O582        C587   1.269       .  A
O584        C586   1.261       .  A
O585       Ni596   1.944       .  S
C586        O592   1.270       .  A
C586        C953   1.434       .  S
C587        C968   1.523       .  S
H588        O589   0.966       .  S
O589       Ni597   1.944       .  S
O589       Ni591   1.926       .  S
O589       Ni596   1.921       .  S
O590       Ni591   1.901       .  S
Ni591       O595   1.943       .  S
Ni591       O593   1.968       .  S
O592       Ni597   1.897       .  S
C594        O595   1.276       .  A
O599        C620   1.264   1_556  A
O599       Ni605   1.915       .  S
O600        C609   1.274       .  A
O600       Ni623   1.947       .  S
O601       Ni605   1.915       .  S
O601       Ni623   1.935       .  S
O601       Ni617   1.918       .  S
O601        H624   0.966       .  S
C602        O619   1.273       .  A
C602        O611   1.270       .  A
C602       C1256   1.485       .  S
O603        C609   1.270       .  A
O603       Ni622   1.929       .  S
O604        C606   1.269       .  A
O604       Ni622   1.892       .  S
Ni605       O608   1.916       .  S
Ni605       O610   1.882       .  S
C606        O616   1.278       .  A
C606       C1220   1.449       .  S
O607        C613   1.278       .  A
O607       Ni623   1.934       .  S
O608        C613   1.270       .  A
O610        C612   1.262       .  A
O611       Ni622   1.932       .  S
C612        O618   1.271       .  A
C612        C929   1.454       .  S
C613        C941   1.494       .  S
H614        O615   0.966       .  S
O615       Ni623   1.945       .  S
O615       Ni617   1.942       .  S
O615       Ni622   1.929       .  S
O616       Ni617   1.935       .  S
Ni617       O621   1.967       .  S
Ni617       O619   1.919       .  S
O618       Ni623   1.921       .  S
C620        O621   1.281   1_554  A
O625        C646   1.268       .  A
O625       Ni631   1.906       .  S
O626        C635   1.270   1_545  A
O626       Ni649   1.916       .  S
O627       Ni631   1.915   1_556  S
O627       Ni649   1.910       .  S
O627       Ni643   1.947   1_545  S
O627        H650   0.966   1_545  S
C628        O645   1.284       .  A
C628        O637   1.282       .  A
C628       C1592   1.537       .  S
O629        C635   1.273       .  A
O629       Ni648   1.941       .  S
O630        C632   1.261       .  A
O630       Ni648   1.873       .  S
Ni631       O634   1.923   1_554  S
Ni631       O636   1.897   1_554  S
C632        O642   1.266       .  A
C632       C1529   1.425       .  S
O633        C639   1.278       .  A
O633       Ni649   1.954       .  S
O634        C639   1.269       .  A
C635        C687   1.485       .  S
O636        C638   1.270       .  A
O637       Ni648   1.959       .  S
C638        O644   1.279       .  A
C638        C917   1.462       .  S
C639        C905   1.506       .  S
H640        O641   0.966   1_545  S
O641       Ni649   1.946   1_565  S
O641       Ni643   1.913       .  S
O641       Ni648   1.922       .  S
O642       Ni643   1.885       .  S
Ni643       O647   1.919   1_556  S
Ni643       O645   1.960       .  S
O644       Ni649   1.926       .  S
C646        O647   1.268   1_545  A
C646        C672   1.463       .  S
O651        C672   1.260       .  A
O651       Ni657   1.899       .  S
O652        C661   1.273       .  A
O652       Ni675   1.925       .  S
O653       Ni657   1.896       .  S
O653       Ni675   1.888       .  S
O653       Ni669   1.920   1_545  S
O653        H676   0.966   1_545  S
C654        O671   1.277       .  A
C654        O663   1.280       .  A
C654       C1544   1.507       .  S
O655        C661   1.273   1_565  A
O655       Ni674   1.932       .  S
O656        C658   1.261       .  A
O656       Ni674   1.870       .  S
Ni657       O660   1.911       .  S
Ni657       O662   1.884       .  S
C658        O668   1.268       .  A
C658       C1580   1.438       .  S
O659        C665   1.285       .  A
O659       Ni675   1.943       .  S
O660        C665   1.275       .  A
C661        C713   1.483       .  S
O662        C664   1.261       .  A
O663       Ni674   1.953       .  S
C664        O670   1.268       .  A
C664        C881   1.439       .  S
C665        C896   1.494       .  S
H666        O667   0.966   1_545  S
O667       Ni675   1.946   1_565  S
O667       Ni669   1.925       .  S
O667       Ni674   1.906       .  S
O668       Ni669   1.898       .  S
Ni669       O673   1.936       .  S
Ni669       O671   1.931       .  S
O670       Ni675   1.901       .  S
C672        O673   1.268   1_545  A
O677        C698   1.267       .  A
O677       Ni683   1.917       .  S
O678        C687   1.266   1_545  A
O678       Ni701   1.906       .  S
O679       Ni683   1.910       .  S
O679       Ni701   1.902       .  S
O679       Ni695   1.931   1_545  S
O679        H702   0.966   1_545  S
C680        O697   1.291       .  A
C680        O689   1.288       .  A
C680       C1064   1.531       .  S
O681        C687   1.279       .  A
O681       Ni700   1.957       .  S
O682        C684   1.258       .  A
O682       Ni700   1.884       .  S
Ni683       O686   1.934       .  S
Ni683       O688   1.876       .  S
C684        O694   1.260       .  A
C684       C1028   1.456       .  S
O685        C691   1.274       .  A
O685       Ni701   1.922       .  S
O686        C691   1.276       .  A
O688        C690   1.265       .  A
O689       Ni700   1.968       .  S
C690        O696   1.267       .  A
C690        C857   1.437       .  S
C691        C869   1.500       .  S
H692        O693   0.966       .  S
O693       Ni701   1.917   1_565  S
O693       Ni695   1.925       .  S
O693       Ni700   1.899       .  S
O694       Ni695   1.900       .  S
Ni695       O699   1.923       .  S
Ni695       O697   1.962       .  S
O696       Ni701   1.890       .  S
C698        O699   1.273   1_545  A
C698        C724   1.467       .  S
O703        C724   1.276       .  A
O703       Ni709   1.941       .  S
O704        C713   1.266       .  A
O704       Ni727   1.919       .  S
O705       Ni709   1.923   1_655  S
O705       Ni721   1.914   1_645  S
O705      Ni2327   1.902       .  S
O705       H2328   0.966       .  S
C706        O723   1.275       .  A
C706        O715   1.282       .  A
C706       C1040   1.533       .  S
O707        C713   1.276   1_565  A
O707      Ni2326   1.938       .  S
O708        C710   1.259       .  A
O708      Ni2326   1.877       .  S
Ni709       O714   1.916       .  S
Ni709      O2312   1.940   1_455  S
C710       O2320   1.270       .  A
C710       C1052   1.460       .  S
O711        C717   1.282       .  A
O711       Ni727   1.940       .  S
O712        C717   1.276       .  A
O712      Ni2309   1.940       .  S
O714        C716   1.271       .  A
O715       Ni726   1.978       .  S
C716        O722   1.267       .  A
C716        C845   1.468       .  S
C717        C833   1.511       .  S
H718        O719   0.966   1_545  S
O719       Ni721   1.928       .  S
O719       Ni726   1.926       .  S
O719      Ni2327   1.959   1_465  S
O720       C2310   1.270   1_455  A
O720       Ni721   1.916       .  S
Ni721       O725   1.896       .  S
Ni721       O723   1.940       .  S
O722      Ni2327   1.902   1_455  S
C724        O725   1.260   1_545  A
Ni726      O2307   1.938   1_455  S
Ni726      O2308   1.877   1_455  S
Ni727      O2322   1.902       .  S
Ni727      O2305   1.902       .  S
Ni727      O2319   1.959   1_545  S
H728       O2305   0.966       .  S
O729        C750   1.267       .  A
O729       Ni735   1.927       .  S
O730        C739   1.269       .  A
O730      Ni2353   1.916       .  S
O731       Ni735   1.929       .  S
O731       Ni753   1.923       .  S
O731       Ni747   1.924       .  S
O731        H754   0.966       .  S
C732        O749   1.268       .  A
C732        O741   1.270       .  A
C732        C956   1.430       .  S
O733        C739   1.271       .  A
O733      Ni2352   1.874       .  S
O734        C736   1.280       .  A
O734       Ni752   1.949       .  S
Ni735       O738   1.926       .  S
Ni735       O740   1.890       .  S
C736        O746   1.280       .  A
C736       C1004   1.525       .  S
O737       C2343   1.280       .  A
O737      Ni2353   1.928       .  S
O738        C743   1.277       .  A
C739        C791   1.477       .  S
O740        C742   1.261       .  A
O741       Ni752   1.879       .  S
C742        O748   1.270       .  A
C742        C848   1.467       .  S
C743       O2337   1.280       .  A
C743       C2493   1.481       .  S
H744        O745   0.966       .  S
O745       Ni753   1.918       .  S
O745       Ni747   1.865       .  S
O745       Ni752   1.898       .  S
O746       Ni747   1.953       .  S
Ni747       O751   1.879       .  S
Ni747       O749   1.883       .  S
O748       Ni753   1.919       .  S
C750        O751   1.255       .  A
C750        C802   1.462       .  S
Ni752      O2333   1.874   1_455  S
Ni753      O2330   1.916   1_455  S
Ni753      O2337   1.928       .  S
O755        C776   1.267       .  A
O755       Ni761   1.896       .  S
O756        C765   1.293       .  A
O756       Ni779   1.958       .  S
O757       Ni761   1.918       .  S
O757       Ni779   1.951       .  S
O757       Ni773   1.973       .  S
O757        H780   0.966       .  S
C758        O775   1.297       .  A
C758        O767   1.288       .  A
C758        C920   1.458       .  S
O759        C765   1.279       .  A
O759       Ni778   1.893       .  S
O760        C762   1.265       .  A
O760       Ni778   1.918       .  S
Ni761       O764   1.930       .  S
Ni761       O766   1.875       .  S
C762        O772   1.272       .  A
C762        C872   1.492       .  S
O763        C769   1.267       .  A
O763       Ni779   1.910       .  S
O764        C769   1.268       .  A
C765        C817   1.467       .  S
O766        C768   1.263       .  A
O767       Ni778   1.915       .  S
C768        O774   1.273       .  A
C768        C932   1.464       .  S
C769        C980   1.485       .  S
H770        O771   0.967       .  S
O771       Ni779   1.836       .  S
O771       Ni773   1.810       .  S
O771       Ni778   1.850       .  S
O772       Ni773   1.933       .  S
Ni773       O777   1.909       .  S
Ni773       O775   1.937       .  S
O774       Ni779   1.925       .  S
C776        O777   1.269       .  A
C776        C828   1.462       .  S
O781        C802   1.267       .  A
O781       Ni787   1.921       .  S
O782        C791   1.266       .  A
O782       Ni805   1.903       .  S
O783       Ni787   1.932       .  S
O783       Ni805   1.924       .  S
O783       Ni799   1.954       .  S
O783        H806   0.966       .  S
C784        O801   1.277       .  A
C784        O793   1.271       .  A
C784       C1016   1.446       .  S
O785        C791   1.278       .  A
O785       Ni804   1.893       .  S
O786        C788   1.284       .  A
O786       Ni804   1.956       .  S
Ni787       O790   1.936       .  S
Ni787       O792   1.872       .  S
C788        O798   1.274       .  A
C788        C965   1.511       .  S
O789        C795   1.275       .  A
O789       Ni805   1.934       .  S
O790        C795   1.276       .  A
O792        C794   1.260       .  A
O793       Ni804   1.887       .  S
C794        O800   1.268       .  A
C794        C884   1.459       .  S
C795        C836   1.497       .  S
H796        O797   0.967       .  S
O797       Ni805   1.918       .  S
O797       Ni799   1.857       .  S
O797       Ni804   1.896       .  S
O798       Ni799   1.930       .  S
Ni799       O803   1.885       .  S
Ni799       O801   1.909       .  S
O800       Ni805   1.904       .  S
C802        O803   1.258       .  A
O807        C828   1.276       .  A
O807       Ni813   1.943       .  S
O808        C817   1.270       .  A
O808      Ni2431   1.924       .  S
O809       Ni813   1.901       .  S
O809       Ni831   1.905       .  S
O809       Ni825   1.924       .  S
O809        H832   0.966       .  S
C810        O827   1.277       .  A
C810        O819   1.274       .  A
C810        C860   1.419       .  S
O811        C817   1.268       .  A
O811      Ni2430   1.872       .  S
O812        C814   1.272       .  A
O812       Ni830   1.940       .  S
Ni813       O816   1.946       .  S
Ni813       O818   1.881       .  S
C814        O824   1.272       .  A
C814        C908   1.512       .  S
O815        C821   1.278       .  A
O815       Ni831   1.909       .  S
O816        C821   1.284       .  A
O818        C820   1.263       .  A
O819       Ni830   1.877       .  S
C820        O826   1.274       .  A
C820        C992   1.468       .  S
C821        C944   1.486       .  S
H822        O823   0.967       .  S
O823       Ni831   1.905       .  S
O823       Ni825   1.851       .  S
O823       Ni830   1.875       .  S
O824       Ni825   1.925       .  S
Ni825       O829   1.875       .  S
Ni825       O827   1.900       .  S
O826       Ni831   1.931       .  S
C828        O829   1.254       .  A
Ni830      O2411   1.873   1_455  S
Ni831      O2408   1.924   1_455  S
C833        C834   1.406       .  A
C833        C838   1.424       .  A
C834        C835   1.408       .  A
C834        H839   1.083       .  S
C835        C836   1.413       .  A
C835        O840   1.370       .  S
C836        C837   1.401       .  A
C837        C838   1.413       .  A
C837        H841   1.083       .  S
C838        O842   1.371       .  S
O840        H844   0.992       .  S
O842        H843   0.992       .  S
C845        C846   1.401       .  A
C845        C850   1.413       .  A
C846        C847   1.403       .  A
C846        H851   1.083       .  S
C847        C848   1.413       .  A
C847        O852   1.371       .  S
C848        C849   1.396       .  A
C849        C850   1.386       .  A
C849       H2453   1.084   1_455  S
C850       O2454   1.372   1_455  S
O852        H856   0.992       .  S
H853       C2449   1.084       .  S
O854       C2450   1.372       .  S
O854        H855   0.992       .  S
C857        C858   1.402       .  A
C857        C862   1.406       .  A
C858        C859   1.383       .  A
C858        H863   1.084       .  S
C859        C860   1.398       .  A
C859        O864   1.372       .  S
C860        C861   1.395       .  A
C861        C862   1.378       .  A
C861        H865   1.085       .  S
C862        O866   1.373       .  S
O864        H868   0.992       .  S
O866        H867   0.992       .  S
C869        C870   1.408       .  A
C869        C874   1.413       .  A
C870        C871   1.400       .  A
C870        H875   1.080       .  S
C871        C872   1.407       .  A
C871        O876   1.374       .  S
C872        C873   1.411       .  A
C873        C874   1.416       .  A
C873        H877   1.083       .  S
C874        O878   1.371       .  S
O876        H880   0.991       .  S
O878        H879   0.992       .  S
C881        C882   1.393       .  A
C881        C886   1.402       .  A
C882        C883   1.384       .  A
C882        H887   1.084       .  S
C883        C884   1.414       .  A
C883        O888   1.372       .  S
C884        C885   1.403       .  A
C885        C886   1.387       .  A
C885        H889   1.084       .  S
C886        O890   1.371       .  S
O888        H892   0.992       .  S
O890        H891   0.992       .  S
C893       C2343   1.481       .  S
C893        C894   1.398       .  A
C893       C2498   1.411       .  A
C894        C895   1.408       .  A
C894        H899   1.083       .  S
C895        C896   1.422       .  A
C895        O900   1.372       .  S
C896        C897   1.403       .  A
C897       C2498   1.400       .  A
C897        H901   1.084       .  S
C898       C2493   1.411       .  A
C898       C2497   1.400       .  A
C898        O902   1.371       .  S
O900        H904   0.991       .  S
O902        H903   0.991       .  S
C905        C906   1.409       .  A
C905        C910   1.413       .  A
C906        C907   1.422       .  A
C906        H911   1.083       .  S
C907        C908   1.422       .  A
C907        O912   1.370       .  S
C908        C909   1.406       .  A
C909        C910   1.400       .  A
C909        H913   1.083       .  S
C910        O914   1.371       .  S
O912        H916   0.992       .  S
O914        H915   0.992       .  S
C917        C918   1.398       .  A
C917        C922   1.412       .  A
C918        C919   1.386       .  A
C918        H923   1.084       .  S
C919        C920   1.408       .  A
C919        O924   1.373       .  S
C920        C921   1.399       .  A
C921        C922   1.403       .  A
C921        H925   1.084       .  S
C922        O926   1.375       .  S
O924        H928   0.992       .  S
O926        H927   0.991       .  S
C929        C930   1.401       .  A
C929        C934   1.404       .  A
C930        C931   1.389       .  A
C930        H935   1.084       .  S
C931        C932   1.410       .  A
C931        O936   1.372       .  S
C932        C933   1.407       .  A
C933        C934   1.389       .  A
C933        H937   1.084       .  S
C934        O938   1.372       .  S
O936        H940   0.992       .  S
O938        H939   0.992       .  S
C941        C942   1.406       .  A
C941        C946   1.420       .  A
C942       C2543   1.410       .  A
C942        H947   1.083       .  S
C943        C944   1.414       .  A
C943       C2542   1.410       .  A
C943        O948   1.370       .  S
C944       C2545   1.399   1_455  A
C945        C946   1.396       .  A
C945       C2544   1.399       .  A
C945        H949   1.084       .  S
C946        O950   1.372       .  S
O948        H952   0.992       .  S
O950        H951   0.992       .  S
C953        C954   1.402       .  A
C953        C958   1.400       .  A
C954        C955   1.375       .  A
C954        H959   1.084       .  S
C955        C956   1.397       .  A
C955        O960   1.373       .  S
C956        C957   1.403       .  A
C957        C958   1.387       .  A
C957        H961   1.084       .  S
C958        O962   1.371       .  S
O960        H964   0.993       .  S
O962        H963   0.992       .  S
C965        C966   1.415       .  A
C965        C970   1.409       .  A
C966        C967   1.425       .  A
C966        H971   1.083       .  S
C967        C968   1.416       .  A
C967        O972   1.370       .  S
C968        C969   1.415       .  A
C969        C970   1.407       .  A
C969        H973   1.083       .  S
C970        O974   1.372       .  S
O972        H976   0.992       .  S
O974        H975   0.992       .  S
C977        C978   1.413       .  A
C977        C982   1.413       .  A
C978        C979   1.400       .  A
C978        H983   1.083       .  S
C979        C980   1.404       .  A
C979        O984   1.372       .  S
C980        C981   1.409       .  A
C981        C982   1.407       .  A
C981        H985   1.084       .  S
C982        O986   1.371       .  S
O984        H988   0.992       .  S
O986        H987   0.992       .  S
C989        C990   1.396       .  A
C989        C994   1.407       .  A
C990        C991   1.390       .  A
C990        H995   1.084       .  S
C991        C992   1.412       .  A
C991        O996   1.372       .  S
C992        C993   1.402       .  A
C993        C994   1.399       .  A
C993        H997   1.084       .  S
C994        O998   1.372       .  S
O996       H1000   0.992       .  S
O998        H999   0.992       .  S
C1001      C1002   1.412       .  A
C1001      C1006   1.422       .  A
C1002      C1003   1.421       .  A
C1002      H1007   1.083       .  S
C1003      C1004   1.420       .  A
C1003      O1008   1.371       .  S
C1004      C1005   1.409       .  A
C1005      C1006   1.417       .  A
C1005      H1009   1.083       .  S
C1006      O1010   1.371       .  S
O1008      H1012   0.992       .  S
O1010      H1011   0.992       .  S
C1013      C1014   1.404       .  A
C1013      C1018   1.403       .  A
C1014      C1015   1.383       .  A
C1014      H1019   1.084       .  S
C1015      C1016   1.400       .  A
C1015      O1020   1.372       .  S
C1016      C1017   1.405       .  A
C1017      C1018   1.392       .  A
C1017      H1021   1.084       .  S
C1018      O1022   1.372       .  S
O1020      H1024   0.992       .  S
O1022      H1023   0.992       .  S
C1025      C1026   1.386       .  A
C1025      C1030   1.401       .  A
C1026      C1027   1.386       .  A
C1026      H1031   1.080       .  S
C1027      C1028   1.417       .  A
C1027      O1032   1.376       .  S
C1028      C1029   1.405       .  A
C1029      C1030   1.389       .  A
C1029      H1033   1.084       .  S
C1030      O1034   1.371       .  S
O1032      H1036   0.991       .  S
O1034      H1035   0.991       .  S
C1037      C1038   1.413       .  A
C1037      C1042   1.419       .  A
C1038      C1039   1.424       .  A
C1038      H1043   1.083       .  S
C1039      C1040   1.421       .  A
C1039      O1044   1.371       .  S
C1040      C1041   1.413       .  A
C1041      C1042   1.417       .  A
C1041      H1045   1.083       .  S
C1042      O1046   1.371       .  S
O1044      H1048   0.992       .  S
O1046      H1047   0.992       .  S
C1049      C1050   1.399       .  A
C1049      C1054   1.397       .  A
C1050      C1051   1.389       .  A
C1050      H1055   1.084       .  S
C1051      C1052   1.411       .  A
C1051      O1056   1.372       .  S
C1052      C1053   1.407       .  A
C1053      C1054   1.384       .  A
C1053      H1057   1.084       .  S
C1054      O1058   1.369       .  S
O1056      H1060   0.992       .  S
O1058      H1059   0.992       .  S
C1061      C1062   1.414       .  A
C1061      C2666   1.412       .  A
C1062      C1063   1.423       .  A
C1062      H1067   1.083       .  S
C1063      C2664   1.418       .  A
C1063      O1068   1.371       .  S
C1064      C1065   1.416       .  A
C1064      C2663   1.418   1_455  A
C1065      C1066   1.415       .  A
C1065      H1069   1.083       .  S
C1066      C2661   1.412   1_455  A
C1066      O1070   1.372       .  S
O1068      H1072   0.992       .  S
O1070      H1071   0.992       .  S
C1073      C1074   1.408       .  A
C1073      C1078   1.404       .  A
C1074      C1075   1.399       .  A
C1074      H1079   1.084       .  S
C1075      C1076   1.405       .  A
C1075      O1080   1.371       .  S
C1076      C1077   1.407       .  A
C1077      C1078   1.388       .  A
C1077      H1081   1.083       .  S
C1078      O1082   1.372       .  S
O1080      H1084   0.992       .  S
O1082      H1083   0.992       .  S
C1085      C1086   1.407       .  A
C1085      C1090   1.410       .  A
C1086      C1087   1.411       .  A
C1086      H1091   1.083       .  S
C1087      C1088   1.413       .  A
C1087      O1092   1.371       .  S
C1088      C1089   1.403       .  A
C1089      C1090   1.388       .  A
C1089      H1093   1.084       .  S
C1090      O1094   1.373       .  S
O1092      H1096   0.992       .  S
O1094      H1095   0.992       .  S
C1097      C1098   1.405       .  A
C1097      C1102   1.418       .  A
C1098      C1099   1.413       .  A
C1098      H1103   1.083       .  S
C1099      C1100   1.416       .  A
C1099      O1104   1.371       .  S
C1100      C1101   1.396       .  A
C1101      C1102   1.394       .  A
C1101      H1105   1.084       .  S
C1102      O1106   1.371       .  S
O1104      H1108   0.992       .  S
O1106      H1107   0.991       .  S
C1109      C1110   1.403       .  A
C1109      C1114   1.410       .  A
C1110      C1111   1.391       .  A
C1110      H1115   1.084       .  S
C1111      C1112   1.407       .  A
C1111      O1116   1.372       .  S
C1112      C1113   1.403       .  A
C1113      C1114   1.402       .  A
C1113      H1117   1.083       .  S
C1114      O1118   1.372       .  S
O1116      H1120   0.992       .  S
O1118      H1119   0.992       .  S
C1121      C1122   1.398       .  A
C1121      C1126   1.392       .  A
C1122      C1123   1.385       .  A
C1122      H1127   1.084       .  S
C1123      C1124   1.405       .  A
C1123      O1128   1.372       .  S
C1124      C1125   1.410       .  A
C1125      C1126   1.375       .  A
C1125      H1129   1.084       .  S
C1126      O1130   1.373       .  S
O1128      H1132   0.992       .  S
O1130      H1131   0.992       .  S
C1133      C1134   1.410       .  A
C1133      C1138   1.417       .  A
C1134      C1135   1.417       .  A
C1134      H1139   1.083       .  S
C1135      C1136   1.421       .  A
C1135      O1140   1.371   1_556  S
C1136      C1137   1.414       .  A
C1137      C1138   1.421       .  A
C1137      H1141   1.083       .  S
C1138      O1142   1.371       .  S
O1140      H1144   0.992       .  S
O1142      H1143   0.992       .  S
C1145      C1150   1.403       .  A
C1145      C2746   1.389       .  A
C1146      C1147   1.379       .  A
C1146      C2745   1.389   1_455  A
C1146      H1151   1.085       .  S
C1147      C2748   1.417       .  A
C1147      O1152   1.373       .  S
C1148      C1149   1.400       .  A
C1148      C2747   1.417       .  A
C1149      C1150   1.384       .  A
C1149      H1153   1.084       .  S
C1150      O1154   1.372       .  S
O1152      H1156   0.992       .  S
O1154      H1155   0.992       .  S
C1157      C1158   1.417       .  A
C1157      C2762   1.411       .  A
C1158      C1159   1.425       .  A
C1158      H1163   1.083       .  S
C1159      C2760   1.416       .  A
C1159      O1164   1.370       .  S
C1160      C1161   1.418       .  A
C1160      C2759   1.416   1_455  A
C1161      C1162   1.415   1_455  A
C1161      H1165   1.083       .  S
C1162      C2757   1.411       .  A
C1162      O1166   1.372   1_655  S
O1164      H1168   0.992       .  S
O1166      H1167   0.992       .  S
C1169      C1170   1.402       .  A
C1169      C1174   1.415       .  A
C1170      C1171   1.387       .  A
C1170      H1175   1.084       .  S
C1171      C1172   1.405       .  A
C1171      O2776   1.372       .  S
C1172      C1173   1.394       .  A
C1173      C1174   1.386       .  A
C1173      H1177   1.084       .  S
C1174      O1178   1.372       .  S
O1176      C2771   1.372       .  S
O1176      H1180   0.992       .  S
O1178      H1179   0.992       .  S
C1181      C1182   1.408       .  A
C1181      C2786   1.406   1_455  A
C1182      C2783   1.408       .  A
C1182      H1187   1.084       .  S
C1183      C1184   1.409       .  A
C1183      C2782   1.408       .  A
C1183      O2788   1.371       .  S
C1184      C1185   1.409       .  A
C1185      C1186   1.400       .  A
C1185      H1189   1.083       .  S
C1186      C2781   1.406       .  A
C1186      O1190   1.372       .  S
O1188      C2783   1.371       .  S
O1188      H1192   0.992       .  S
O1190      H1191   0.992       .  S
C1193      C1194   1.402       .  A
C1193      C1198   1.412       .  A
C1194      C1195   1.398       .  A
C1194      H1199   1.084       .  S
C1195      C1196   1.408       .  A
C1195      O1200   1.371       .  S
C1196      C1197   1.397       .  A
C1197      C1198   1.393       .  A
C1197      H1201   1.084       .  S
C1198      O1202   1.373       .  S
O1200      H1204   0.992       .  S
O1202      H1203   0.991       .  S
C1205      C1206   1.415       .  A
C1205      C1210   1.415       .  A
C1206      C1207   1.420       .  A
C1206      H1211   1.083       .  S
C1207      C1208   1.410       .  A
C1207      O1212   1.370       .  S
C1208      C1209   1.401       .  A
C1209      C1210   1.391       .  A
C1209      H1213   1.085       .  S
C1210      O1214   1.373       .  S
O1212      H1216   0.992       .  S
O1214      H1215   0.992       .  S
C1217      C1218   1.404       .  A
C1217      C1222   1.418       .  A
C1218      C1219   1.392       .  A
C1218      H1223   1.084       .  S
C1219      C1220   1.403       .  A
C1219      O1224   1.371       .  S
C1220      C1221   1.393       .  A
C1221      C1222   1.393       .  A
C1221      H1225   1.084       .  S
C1222      O1226   1.372   1_556  S
O1224      H1228   0.992       .  S
O1226      H2827   0.992       .  S
H1227      O2826   0.992   1_655  S
C1229      C1230   1.404       .  A
C1229      C1234   1.418       .  A
C1230      C1231   1.405       .  A
C1230      H1235   1.084       .  S
C1231      C1232   1.419       .  A
C1231      O1236   1.372       .  S
C1232      C1233   1.410       .  A
C1233      C1234   1.418       .  A
C1233      H1237   1.083       .  S
C1234      O1238   1.371       .  S
O1236      H1240   0.992       .  S
O1238      H1239   0.991       .  S
C1241      C1242   1.402       .  A
C1241      C1246   1.404       .  A
C1242      C1243   1.391       .  A
C1242      H1247   1.084       .  S
C1243      C1244   1.404       .  A
C1243      O1248   1.372       .  S
C1244      C1245   1.404       .  A
C1245      C1246   1.384       .  A
C1245      H1249   1.084       .  S
C1246      O1250   1.373       .  S
O1248      H1252   0.992       .  S
O1250      H1251   0.991       .  S
C1253      C1254   1.406       .  A
C1253      C1258   1.414       .  A
C1254      C1255   1.416       .  A
C1254      H1259   1.083       .  S
C1255      C1256   1.416       .  A
C1255      O1260   1.371       .  S
C1256      C1257   1.397       .  A
C1257      C1258   1.394       .  A
C1257      H1261   1.084       .  S
C1258      O1262   1.370       .  S
O1260      H1264   0.992       .  S
O1262      H1263   0.992       .  S
C1265      C1266   1.408       .  A
C1265      C1270   1.400       .  A
C1266      C1267   1.378       .  A
C1266      H1271   1.084       .  S
C1267      C1268   1.395       .  A
C1267      O1272   1.373       .  S
C1268      C1269   1.407       .  A
C1269      C1270   1.394       .  A
C1269      H1273   1.084       .  S
C1270      O1274   1.371       .  S
O1272      H1276   0.992       .  S
O1274      H1275   0.992       .  S
C1277      C1278   1.413       .  A
C1277      C1282   1.410       .  A
C1278      C1279   1.417       .  A
C1278      H1283   1.083       .  S
C1279      C1280   1.412       .  A
C1279      O1284   1.371       .  S
C1280      C1281   1.412       .  A
C1281      C1282   1.405       .  A
C1281      H1285   1.084       .  S
C1282      O1286   1.372       .  S
O1284      H1288   0.992       .  S
O1286      H1287   0.992       .  S
C1289      C1290   1.391       .  A
C1289      C1294   1.408       .  A
C1290      C1291   1.378       .  A
C1290      H1295   1.085       .  S
C1291      C1292   1.410       .  A
C1291      O1296   1.372       .  S
C1292      C1293   1.398       .  A
C1293      C1294   1.392       .  A
C1293      H1297   1.084       .  S
C1294      O1298   1.371       .  S
O1296      H1300   0.992       .  S
O1298      H1299   0.992       .  S
C1301      C1302   1.411       .  A
C1301      C1306   1.416       .  A
C1302      C1303   1.409       .  A
C1302      H1307   1.083       .  S
C1303      C1304   1.413       .  A
C1303      O1308   1.372       .  S
C1304      C1305   1.412       .  A
C1305      C1306   1.418       .  A
C1305      H1309   1.083       .  S
C1306      O1310   1.371       .  S
O1308      H1312   0.992       .  S
O1310      H1311   0.992       .  S
C1313      C1314   1.405       .  A
C1313      C1318   1.409       .  A
C1314      C1315   1.381       .  A
C1314      H1319   1.084       .  S
C1315      C1316   1.396       .  A
C1315      O1320   1.373       .  S
C1316      C1317   1.398       .  A
C1317      C1318   1.389       .  A
C1317      H1321   1.085       .  S
C1318      O1322   1.373       .  S
O1320      H1324   0.992       .  S
O1322      H1323   0.992       .  S
C1325      C1326   1.407       .  A
C1325      C1330   1.413       .  A
C1326      C1327   1.417       .  A
C1326      H1331   1.083       .  S
C1327      C1328   1.417       .  A
C1327      O1332   1.371       .  S
C1328      C1329   1.403       .  A
C1329      C1330   1.395       .  A
C1329      H1333   1.084       .  S
C1330      O1334   1.372       .  S
O1332      H1336   0.992       .  S
O1334      H1335   0.992       .  S
C1337      C1338   1.403       .  A
C1337      C1342   1.416       .  A
C1338      C1339   1.384       .  A
C1338      H1343   1.084       .  S
C1339      C1340   1.399       .  A
C1339      O1344   1.372       .  S
C1340      C1341   1.390       .  A
C1341      C1342   1.375       .  A
C1341      H1345   1.086       .  S
C1342      O1346   1.373       .  S
O1344      H1348   0.992       .  S
O1346      H1347   0.992       .  S
C1349      C1350   1.401       .  A
C1349      C1354   1.415       .  A
C1350      C1351   1.405       .  A
C1350      H1355   1.084       .  S
C1351      C1352   1.423       .  A
C1351      O1356   1.372       .  S
C1352      C1353   1.410       .  A
C1353      C1354   1.415       .  A
C1353      H1357   1.083       .  S
C1354      O1358   1.371       .  S
O1356      H1360   0.992       .  S
O1358      H1359   0.992       .  S
C1361      C1362   1.412       .  A
C1361      C1366   1.412       .  A
C1362      C1363   1.408       .  A
C1362      H1367   1.083       .  S
C1363      C1364   1.408       .  A
C1363      O1368   1.371       .  S
C1364      C1365   1.409       .  A
C1365      C1366   1.408       .  A
C1365      H1369   1.084       .  S
C1366      O1370   1.371       .  S
O1368      H1372   0.992       .  S
O1370      H1371   0.992       .  S
C1373      C1374   1.397       .  A
C1373      C1378   1.410       .  A
C1374      C1375   1.399       .  A
C1374      H1379   1.084       .  S
C1375      C1376   1.418       .  A
C1375      O1380   1.373       .  S
C1376      C1377   1.402       .  A
C1377      C1378   1.398       .  A
C1377      H1381   1.084       .  S
C1378      O1382   1.372       .  S
O1380      H1384   0.991       .  S
O1382      H1383   0.992       .  S
C1385      C1390   1.418       .  A
C1385      C2986   1.406       .  A
C1386      C1387   1.404       .  A
C1386      C2985   1.406   1_455  A
C1386      H1391   1.083       .  S
C1387      C1388   1.414       .  A
C1387      O1392   1.372       .  S
C1388      C2989   1.404   1_455  A
C1389      C1390   1.408       .  A
C1389      C2988   1.404       .  A
C1389      H1393   1.083       .  S
C1390      O1394   1.371       .  S
O1392      H1396   0.992       .  S
O1394      H1395   0.992       .  S
C1397      C1398   1.413       .  A
C1397      C1402   1.410       .  A
C1398      C1399   1.397       .  A
C1398      H1403   1.083       .  S
C1399      C1400   1.398       .  A
C1399      O1404   1.372       .  S
C1400      C1401   1.401       .  A
C1401      C1402   1.395       .  A
C1401      H1405   1.084       .  S
C1402      O1406   1.372       .  S
O1404      H3008   0.992       .  S
O1406      H1407   0.992       .  S
H1408      O3004   0.992       .  S
C1409      C1410   1.407       .  A
C1409      C1414   1.405       .  A
C1410      C1411   1.401       .  A
C1410      H1415   1.084       .  S
C1411      C1412   1.409       .  A
C1411      O1416   1.372       .  S
C1412      C1413   1.413       .  A
C1413      C1414   1.408       .  A
C1413      H1417   1.083   1_556  S
C1414      O1418   1.371   1_556  S
O1416      H1420   0.992       .  S
O1418      H1419   0.992       .  S
C1421      C1422   1.396       .  A
C1421      C1426   1.398       .  A
C1422      C1423   1.381       .  A
C1422      H1427   1.082   1_455  S
C1423      C1424   1.407       .  A
C1423      O3028   1.372   1_455  S
C1424      C1425   1.409       .  A
C1425      C1426   1.392       .  A
C1425      H1429   1.084       .  S
C1426      O1430   1.372       .  S
O1428      C3023   1.372       .  S
O1428      H1432   0.992       .  S
O1430      H1431   0.992       .  S
C1433      C1434   1.415       .  A
C1433      C1438   1.417       .  A
C1434      C1435   1.411       .  A
C1434      H1439   1.083       .  S
C1435      C1436   1.406       .  A
C1435      O1440   1.371       .  S
C1436      C1437   1.406       .  A
C1437      C1438   1.411       .  A
C1437      H1441   1.084   1_556  S
C1438      O1442   1.372       .  S
O1440      H1444   0.992       .  S
O1442      H1443   0.992   1_556  S
C1445      C1446   1.401       .  A
C1445      C3050   1.403   1_455  A
C1446      C3047   1.381       .  A
C1446      H1451   1.085       .  S
C1447      C1448   1.405       .  A
C1447      C3046   1.381       .  A
C1447      O3052   1.374   1_556  S
C1448      C1449   1.402       .  A
C1449      C1450   1.388       .  A
C1449      H1453   1.084       .  S
C1450      C3045   1.403       .  A
C1450      O1454   1.372       .  S
O1452      C3047   1.374   1_554  S
O1452      H1456   0.992       .  S
O1454      H1455   0.992       .  S
C1457      C1458   1.397       .  A
C1457      C1462   1.415       .  A
C1458      C1459   1.394       .  A
C1458      H1463   1.084       .  S
C1459      C1460   1.406       .  A
C1459      O1464   1.372       .  S
C1460      C1461   1.386       .  A
C1461      C1462   1.378       .  A
C1461      H1465   1.086       .  S
C1462      O1466   1.377       .  S
O1464      H1468   0.992       .  S
O1466      H1467   0.992       .  S
C1469      C1474   1.421       .  A
C1469      C3070   1.406       .  A
C1470      C1471   1.418       .  A
C1470      C3069   1.406   1_455  A
C1470      H1475   1.083       .  S
C1471      C1472   1.426       .  A
C1471      O1476   1.372       .  S
C1472      C3073   1.412   1_455  A
C1473      C1474   1.425       .  A
C1473      C3072   1.412       .  A
C1473      H1477   1.083       .  S
C1474      O1478   1.371       .  S
O1476      H1480   0.992       .  S
O1478      H1479   0.992       .  S
C1481      C1482   1.411       .  A
C1481      C1486   1.413       .  A
C1482      C1483   1.416       .  A
C1482      H1487   1.084       .  S
C1483      C1484   1.417       .  A
C1483      O1488   1.372       .  S
C1484      C1485   1.419       .  A
C1485      C1486   1.426       .  A
C1485      H1489   1.083       .  S
C1486      O1490   1.370       .  S
O1488      H1492   0.992       .  S
O1490      H1491   0.992       .  S
C1493      C1494   1.391       .  A
C1493      C1498   1.402       .  A
C1494      C1495   1.380       .  A
C1494      H1499   1.086       .  S
C1495      C1496   1.409       .  A
C1495      O1500   1.374       .  S
C1496      C1497   1.399       .  A
C1497      C1498   1.392       .  A
C1497      H1501   1.084       .  S
C1498      O1502   1.372       .  S
O1500      H1504   0.991       .  S
O1502      H1503   0.992       .  S
C1505      C1506   1.402       .  A
C1505      C1510   1.400       .  A
C1506      C1507   1.380       .  A
C1506      H1511   1.085       .  S
C1507      C1508   1.399       .  A
C1507      O1512   1.373       .  S
C1508      C1509   1.406       .  A
C1509      C1510   1.397       .  A
C1509      H1513   1.084       .  S
C1510      O1514   1.371   1_554  S
O1512      H1516   0.992       .  S
O1514      H1515   0.992       .  S
C1517      C1518   1.393       .  A
C1517      C1522   1.415       .  A
C1518      C1519   1.396       .  A
C1518      H1523   1.084       .  S
C1519      C1520   1.425       .  A
C1519      O1524   1.372       .  S
C1520      C1521   1.403       .  A
C1521      C1522   1.407       .  A
C1521      H1525   1.083       .  S
C1522      O1526   1.372       .  S
O1524      H1528   0.992       .  S
O1526      H1527   0.992       .  S
C1529      C1530   1.394       .  A
C1529      C1534   1.406   1_556  A
C1530      C1531   1.388       .  A
C1530      H1535   1.084       .  S
C1531      C1532   1.407   1_556  A
C1531      O1536   1.372       .  S
C1532      C1533   1.389       .  A
C1533      C1534   1.372       .  A
C1533      H1537   1.085       .  S
C1534      O1538   1.371       .  S
O1536      H1540   0.992       .  S
O1538      H1539   0.992       .  S
C1541      C1542   1.411       .  A
C1541      C1546   1.411       .  A
C1542      C1543   1.414       .  A
C1542      H1547   1.083       .  S
C1543      C1544   1.413       .  A
C1543      O1548   1.371       .  S
C1544      C1545   1.412       .  A
C1545      C1546   1.407       .  A
C1545      H1549   1.083       .  S
C1546      O1550   1.372       .  S
O1548      H1552   0.992       .  S
O1550      H1551   0.992       .  S
C1553      C1554   1.408       .  A
C1553      C1558   1.411       .  A
C1554      C1555   1.399       .  A
C1554      H1559   1.083       .  S
C1555      C1556   1.404       .  A
C1555      O1560   1.371       .  S
C1556      C1557   1.399       .  A
C1557      C1558   1.385       .  A
C1557      H1561   1.085       .  S
C1558      O1562   1.372       .  S
O1560      H1564   0.992       .  S
O1562      H1563   0.992       .  S
C1565      C1566   1.415       .  A
C1565      C1570   1.409       .  A
C1566      C1567   1.400       .  A
C1566      H1571   1.083       .  S
C1567      C1568   1.403   1_455  A
C1567      O1572   1.372       .  S
C1568      C1604   1.491   1_556  S
C1568      C1569   1.413   1_556  A
C1569      C1570   1.411   1_654  A
C1569      H3173   1.084       .  S
C1570      O1574   1.371   1_456  S
O1572      H1576   0.992       .  S
H1573      C3169   1.084       .  S
O1574      H3175   0.992   1_655  S
H1575      O3174   0.992       .  S
C1577      C1578   1.395       .  A
C1577      C1582   1.403       .  A
C1578      C1579   1.377       .  A
C1578      H1583   1.085       .  S
C1579      C1580   1.409       .  A
C1579      O1584   1.373       .  S
C1580      C1581   1.400       .  A
C1581      C1582   1.384       .  A
C1581      H1585   1.084       .  S
C1582      O1586   1.374       .  S
O1584      H1588   0.992       .  S
O1586      H1587   0.992       .  S
C1589      C1590   1.409   1_554  A
C1589      C1594   1.420       .  A
C1590      C1591   1.420       .  A
C1590      H1595   1.083       .  S
C1591      C1592   1.424       .  A
C1591      O1596   1.371       .  S
C1592      C1593   1.414   1_556  A
C1593      C1594   1.425       .  A
C1593      H1597   1.083       .  S
C1594      O1598   1.371       .  S
O1596      H1600   0.992       .  S
O1598      H1599   0.991       .  S
O1601      C1622   1.273       .  A
O1602      C1611   1.257       .  A
O1602     Ni1625   1.887       .  S
O1603     Ni1607   1.909       .  S
O1603     Ni1625   1.873       .  S
O1603     Ni1619   1.922       .  S
O1603      H1626   0.966       .  S
C1604      O1621   1.276       .  A
C1604      O1613   1.277       .  A
O1605      C1611   1.270       .  A
O1605     Ni1624   1.930       .  S
O1606      C1608   1.262       .  A
O1606     Ni1624   1.893       .  S
Ni1607     O1610   1.879       .  S
Ni1607     O1612   1.959       .  S
C1608      O1618   1.265       .  A
C1608      C3153   1.470       .  S
O1609      C1615   1.267       .  A
O1609     Ni1625   1.881       .  S
O1610      C1615   1.268       .  A
C1611      C1637   1.469       .  S
O1612      C1614   1.284       .  A
O1613     Ni1624   1.939       .  S
C1614      O1620   1.281       .  A
C1614      C3189   1.528       .  S
C1615      C3177   1.432       .  S
H1616      O1617   0.966       .  S
O1617     Ni1625   1.929       .  S
O1617     Ni1619   1.926       .  S
O1617     Ni1624   1.938       .  S
O1618     Ni1619   1.910       .  S
Ni1619     O1621   1.915       .  S
O1620     Ni1625   1.957       .  S
C1622      O1623   1.262       .  A
C1622      C1648   1.483       .  S
O1627      C1648   1.270       .  A
O1627     Ni1633   1.876       .  S
O1628      C1637   1.264       .  A
O1628     Ni1651   1.902       .  S
O1629     Ni1633   1.893       .  S
O1629     Ni1651   1.862       .  S
O1629     Ni1645   1.906       .  S
O1629      H1652   0.967       .  S
C1630      O1647   1.277       .  A
C1630      O1639   1.275       .  A
C1630      C3117   1.477       .  S
O1631      C1637   1.266       .  A
O1631     Ni1650   1.918       .  S
O1632      C1634   1.262       .  A
O1632     Ni1650   1.883       .  S
Ni1633     O1636   1.885       .  S
Ni1633     O1638   1.934       .  S
C1634      O1644   1.266       .  A
C1634      C3108   1.445       .  S
O1635      C1641   1.271       .  A
O1635     Ni1651   1.881       .  S
O1636      C1641   1.272       .  A
O1638      C1640   1.278       .  A
O1639     Ni1650   1.918       .  S
C1640      O1646   1.279       .  A
C1640      C3141   1.504       .  S
C1641      C3132   1.425       .  S
H1642      O1643   0.966       .  S
O1643     Ni1651   1.930       .  S
O1643     Ni1645   1.922       .  S
O1643     Ni1650   1.923       .  S
O1644     Ni1645   1.902       .  S
Ni1645     O1649   1.923       .  S
Ni1645     O1647   1.921       .  S
O1646     Ni1651   1.946       .  S
C1648      O1649   1.270       .  A
O1653      C1674   1.271       .  A
O1653     Ni1659   1.921       .  S
O1654      C1663   1.267       .  A
O1654     Ni1677   1.908       .  S
O1655     Ni1659   1.910       .  S
O1655     Ni1677   1.899       .  S
O1655     Ni1671   1.945       .  S
O1655      H1678   0.966       .  S
C1656      O1673   1.289       .  A
C1656      O1665   1.280       .  A
C1656      C3072   1.534       .  S
O1657      C1663   1.276       .  A
O1657     Ni1676   1.936       .  S
O1658      C1660   1.266       .  A
O1658     Ni1676   1.894       .  S
Ni1659     O1662   1.938       .  S
Ni1659     O1664   1.887       .  S
C1660      O1670   1.263       .  A
C1660      C3057   1.445       .  S
O1661      C1667   1.286       .  A
O1661     Ni1677   1.972       .  S
O1662      C1667   1.279       .  A
C1663      C1741   1.468       .  S
O1664      C1666   1.265       .  A
O1665     Ni1676   1.952       .  S
C1666      O1672   1.267       .  A
C1666      C3096   1.440       .  S
C1667      C3081   1.520       .  S
H1668      O1669   0.966       .  S
O1669     Ni1677   1.941       .  S
O1669     Ni1671   1.901       .  S
O1669     Ni1676   1.911       .  S
O1670     Ni1671   1.880       .  S
Ni1671     O1675   1.912       .  S
Ni1671     O1673   1.970       .  S
O1672     Ni1677   1.892       .  S
C1674      O1675   1.265       .  A
C1674      C1700   1.460       .  S
O1679      C1700   1.264       .  A
O1679     Ni1685   1.907       .  S
O1680      C1689   1.271       .  A
O1681     Ni1685   1.915   1_556  S
O1681     Ni1703   1.908       .  S
O1681     Ni1697   1.915       .  S
O1681      H1704   0.966       .  S
C1682      O1699   1.273       .  A
C1682      O1691   1.277       .  A
C1682      C3033   1.522       .  S
O1683      C1689   1.271   1_455  A
O1684      C1686   1.264       .  A
O1684     Ni1702   1.875       .  S
Ni1685     O1690   1.888   1_554  S
C1686      O1696   1.273       .  A
C1686      C3045   1.443       .  S
O1687      C1693   1.280       .  A
O1688      C1693   1.271       .  A
C1689      C1715   1.485       .  S
O1690      C1692   1.262       .  A
O1691     Ni1702   1.959       .  S
C1692      O1698   1.270       .  A
C1692      C3021   1.440       .  S
C1693      C3012   1.488       .  S
H1694      O1695   0.966       .  S
O1695     Ni1703   1.955       .  S
O1695     Ni1697   1.931       .  S
O1695     Ni1702   1.926       .  S
O1696     Ni1697   1.911       .  S
Ni1697     O1701   1.917   1_556  S
Ni1697     O1699   1.933       .  S
O1698     Ni1703   1.906       .  S
C1700      O1701   1.267       .  A
O1705      C1726   1.276       .  A
O1705     Ni1711   1.942       .  S
O1706      C1715   1.270       .  A
O1706     Ni1729   1.928       .  S
O1707     Ni1711   1.908       .  S
O1707     Ni1729   1.910       .  S
O1707     Ni1723   1.926       .  S
O1707      H1730   0.966       .  S
C1708      O1725   1.281       .  A
C1708      O1717   1.281       .  A
C1708      C2961   1.501       .  S
O1709      C1715   1.275       .  A
O1709     Ni1728   1.944       .  S
O1710      C1712   1.266       .  A
O1710     Ni1728   1.893       .  S
Ni1711     O1714   1.940       .  S
Ni1711     O1716   1.899       .  S
C1712      O1722   1.272       .  A
C1712      C3000   1.457       .  S
O1713      C1719   1.279       .  A
O1713     Ni1729   1.926       .  S
O1714      C1719   1.280       .  A
O1716      C1718   1.268       .  A
O1717     Ni1728   1.939       .  S
C1718      O1724   1.274       .  A
C1718      C2973   1.470       .  S
C1719      C2985   1.501       .  S
H1720      O1721   0.966       .  S
O1721     Ni1729   1.921       .  S
O1721     Ni1723   1.910       .  S
O1721     Ni1728   1.908       .  S
O1722     Ni1723   1.923       .  S
Ni1723     O1727   1.932       .  S
Ni1723     O1725   1.933       .  S
O1724     Ni1729   1.927       .  S
C1726      O1727   1.271       .  A
C1726      C1752   1.489       .  S
O1731      C1752   1.272       .  A
O1731     Ni1737   1.927       .  S
O1732      C1741   1.269       .  A
O1732     Ni1755   1.925       .  S
O1733     Ni1737   1.908       .  S
O1733     Ni1755   1.923       .  S
O1733     Ni1749   1.940       .  S
O1733      H1756   0.966       .  S
C1734      O1751   1.281       .  A
C1734      O1743   1.275       .  A
C1734      C2928   1.494       .  S
O1735      C1741   1.267       .  A
O1735     Ni1754   1.921       .  S
O1736      C1738   1.264       .  A
O1736     Ni1754   1.884       .  S
Ni1737     O1740   1.939       .  S
Ni1737     O1742   1.884       .  S
C1738      O1748   1.269       .  A
C1738      C2916   1.434       .  S
O1739      C1745   1.279       .  A
O1739     Ni1755   1.938       .  S
O1740      C1745   1.275       .  A
O1742      C1744   1.266       .  A
O1743     Ni1754   1.924       .  S
C1744      O1750   1.264       .  A
C1744      C2937   1.447       .  S
C1745      C2952   1.512       .  S
H1746      O1747   0.966       .  S
O1747     Ni1755   1.921       .  S
O1747     Ni1749   1.896       .  S
O1747     Ni1754   1.905       .  S
O1748     Ni1749   1.893       .  S
Ni1749     O1753   1.934       .  S
Ni1749     O1751   1.931       .  S
O1750     Ni1755   1.885       .  S
C1752      O1753   1.275       .  A
O1757      C1778   1.271       .  A
O1757     Ni1763   1.884       .  S
O1758      C1767   1.260       .  A
O1758     Ni1781   1.891       .  S
O1759     Ni1763   1.902       .  S
O1759     Ni1781   1.863       .  S
O1759     Ni1775   1.913       .  S
O1759      H1782   0.967       .  S
C1760      O1777   1.274       .  A
C1760      O1769   1.277       .  A
C1760      C2964   1.494       .  S
O1761      C1767   1.268       .  A
O1761     Ni1780   1.933       .  S
O1762      C1764   1.260       .  A
O1762     Ni1780   1.865       .  S
Ni1763     O1766   1.891       .  S
Ni1763     O1768   1.945       .  S
C1764      O1774   1.266       .  A
C1764      C2913   1.455       .  S
O1765      C1771   1.272       .  A
O1765     Ni1781   1.894       .  S
O1766      C1771   1.271       .  A
C1767      C1923   1.474       .  S
O1768      C1770   1.280       .  A
O1769     Ni1780   1.936       .  S
C1770      O1776   1.276       .  A
C1770      C2904   1.511       .  S
C1771      C2889   1.438       .  S
H1772      O1773   0.966       .  S
O1773     Ni1781   1.942       .  S
O1773     Ni1775   1.931       .  S
O1773     Ni1780   1.935       .  S
O1774     Ni1775   1.904       .  S
Ni1775     O1779   1.910       .  S
Ni1775     O1777   1.921       .  S
O1776     Ni1781   1.940       .  S
C1778      O1779   1.265       .  A
C1778      C1934   1.474       .  S
O1783      C1804   1.264       .  A
O1783     Ni1789   1.903       .  S
O1784      C1793   1.259       .  A
O1785     Ni1789   1.938       .  S
O1785     Ni1807   1.933       .  S
O1785     Ni1801   1.961       .  S
O1785      H1808   0.966       .  S
C1786      O1803   1.279       .  A
C1786      O1795   1.266       .  A
C1786      C2865   1.450       .  S
O1787      C1793   1.268       .  A
O1788      C1790   1.281       .  A
O1788     Ni1806   1.938       .  S
Ni1789     O1792   1.929       .  S
Ni1789     O1794   1.873       .  S
C1790      O1800   1.279       .  A
C1790      C2877   1.503       .  S
O1791      C1797   1.268       .  A
O1791     Ni1807   1.917       .  S
O1792      C1797   1.270       .  A
C1793      C1949   1.478       .  S
O1794      C1796   1.261       .  A
O1795     Ni1806   1.869       .  S
C1796      O1802   1.267       .  A
C1796      C3024   1.456       .  S
C1797      C2988   1.494       .  S
H1798      O1799   0.967       .  S
O1799     Ni1807   1.920       .  S
O1799     Ni1801   1.875       .  S
O1799     Ni1806   1.905       .  S
O1800     Ni1801   1.942       .  S
Ni1801     O1805   1.913       .  S
Ni1801     O1803   1.923       .  S
O1802     Ni1807   1.905       .  S
C1804      O1805   1.269       .  A
C1804      C1960   1.470       .  S
O1809      C1830   1.270       .  A
O1809     Ni1815   1.881       .  S
O1810      C1819   1.263       .  A
O1810     Ni1833   1.890       .  S
O1811     Ni1815   1.877       .  S
O1811     Ni1833   1.853       .  S
O1811     Ni1827   1.896   1_554  S
O1811      H1834   0.967       .  S
C1812      O1829   1.276       .  A
C1812      O1821   1.280       .  A
C1812      C2853   1.490       .  S
O1813      C1819   1.272   1_556  A
O1813     Ni1832   1.942       .  S
O1814      C1816   1.262   1_556  A
O1814     Ni1832   1.875       .  S
Ni1815     O1818   1.893       .  S
Ni1815     O1820   1.925   1_554  S
C1816      O1826   1.271       .  A
C1816      C2844   1.454       .  S
O1817      C1823   1.276       .  A
O1817     Ni1833   1.893       .  S
O1818      C1823   1.275       .  A
C1819      C1845   1.477       .  S
O1820      C1822   1.275       .  A
O1821     Ni1832   1.938       .  S
C1822      O1828   1.274       .  A
C1822      C3036   1.483       .  S
C1823      C3060   1.430       .  S
H1824      O1825   0.966       .  S
O1825     Ni1833   1.932   1_556  S
O1825     Ni1827   1.912       .  S
O1825     Ni1832   1.916       .  S
O1826     Ni1827   1.917   1_554  S
Ni1827     O1831   1.913   1_556  S
Ni1827     O1829   1.922       .  S
O1828     Ni1833   1.936   1_556  S
C1830      O1831   1.273       .  A
C1830      C1856   1.468       .  S
O1835      C1856   1.272       .  A
O1835     Ni1841   1.885       .  S
O1836      C1845   1.258       .  A
O1837     Ni1841   1.907       .  S
O1837     Ni1859   1.871       .  S
O1837     Ni1853   1.923       .  S
O1837      H1860   0.966       .  S
C1838      O1855   1.273       .  A
C1838      O1847   1.285       .  A
C1838      C2829   1.506       .  S
O1839      C1845   1.275       .  A
O1840      C1842   1.258       .  A
O1840     Ni1858   1.877   1_655  S
Ni1841     O1844   1.884   1_554  S
Ni1841     O1846   1.952       .  S
C1842      O1852   1.270       .  A
C1842      C2817   1.472   1_554  S
O1843      C1849   1.270   1_554  A
O1843     Ni1859   1.893       .  S
O1844      C1849   1.270       .  A
O1846      C1848   1.281       .  A
O1847     Ni1858   1.971   1_655  S
C1848      O1854   1.281       .  A
C1848      C3069   1.526       .  S
C1849      C3048   1.442       .  S
H1850      O1851   0.966       .  S
O1851     Ni1859   1.932       .  S
O1851     Ni1853   1.916       .  S
O1851     Ni1858   1.935   1_655  S
O1852     Ni1853   1.924       .  S
Ni1853     O1857   1.901       .  S
Ni1853     O1855   1.907       .  S
O1854     Ni1859   1.956       .  S
C1856      O1857   1.259       .  A
O1861      C1882   1.276       .  A
O1861     Ni1867   1.960       .  S
O1862      C1871   1.269       .  A
O1862     Ni1885   1.908       .  S
O1863     Ni1867   1.925       .  S
O1863     Ni1885   1.908       .  S
O1863     Ni1879   1.922       .  S
O1863      H1886   0.966       .  S
C1864      O1881   1.270       .  A
C1864      O1873   1.273       .  A
C1864      C2940   1.420       .  S
O1865      C1871   1.276       .  A
O1865     Ni1884   1.897       .  S
O1866      C1868   1.282       .  A
O1866     Ni1884   1.953       .  S
Ni1867     O1870   1.954       .  S
Ni1867     O1872   1.888       .  S
C1868      O1878   1.280       .  A
C1868      C3084   1.529       .  S
O1869      C1875   1.276       .  A
O1869     Ni1885   1.909       .  S
O1870      C1875   1.285       .  A
C1871      C1897   1.469       .  S
O1872      C1874   1.262       .  A
O1873     Ni1884   1.885       .  S
C1874      O1880   1.272       .  A
C1874      C2793   1.470       .  S
C1875      C2808   1.489       .  S
H1876      O1877   0.966       .  S
O1877     Ni1885   1.900       .  S
O1877     Ni1879   1.859       .  S
O1877     Ni1884   1.883       .  S
O1878     Ni1879   1.952       .  S
Ni1879     O1883   1.873       .  S
Ni1879     O1881   1.883       .  S
O1880     Ni1885   1.931       .  S
C1882      O1883   1.257       .  A
C1882      C1908   1.476       .  S
O1887      C1908   1.271       .  A
O1887     Ni1893   1.945       .  S
O1888      C1897   1.271       .  A
O1889     Ni1893   1.917       .  S
O1889     Ni1911   1.905       .  S
O1889     Ni1905   1.921       .  S
O1889      H1912   0.966       .  S
C1890      O1907   1.271       .  A
C1890      O1899   1.274       .  A
C1890      C3093   1.427       .  S
O1891      C1897   1.272       .  A
O1892      C1894   1.277       .  A
O1892     Ni1910   1.933       .  S
Ni1893     O1896   1.932       .  S
Ni1893     O1898   1.877       .  S
C1894      O1904   1.279       .  A
C1894      C2949   1.500       .  S
O1895      C1901   1.278       .  A
O1895     Ni1911   1.921       .  S
O1896      C1901   1.282       .  A
O1898      C1900   1.260       .  A
O1899     Ni1910   1.895       .  S
C1900      O1906   1.269       .  A
C1900      C2769   1.461       .  S
C1901      C2781   1.481       .  S
H1902      O1903   0.967       .  S
O1903     Ni1911   1.902       .  S
O1903     Ni1905   1.865       .  S
O1903     Ni1910   1.885       .  S
O1904     Ni1905   1.943       .  S
Ni1905     O1909   1.885       .  S
Ni1905     O1907   1.890       .  S
O1906     Ni1911   1.910       .  S
C1908      O1909   1.264       .  A
O1913      C1934   1.276       .  A
O1913     Ni1919   1.889       .  S
O1914      C1923   1.260       .  A
O1915     Ni1919   1.888       .  S
O1915     Ni1937   1.861       .  S
O1915     Ni1931   1.907       .  S
O1915      H1938   0.966       .  S
C1916      O1933   1.278       .  A
C1916      O1925   1.283       .  A
C1916      C2925   1.492       .  S
O1917      C1923   1.274       .  A
O1918      C1920   1.264       .  A
O1918     Ni1936   1.892       .  S
Ni1919     O1922   1.879       .  S
Ni1919     O1924   1.950       .  S
C1920      O1930   1.271       .  A
C1920      C2997   1.479       .  S
O1921      C1927   1.272       .  A
O1921     Ni1937   1.890       .  S
O1922      C1927   1.272       .  A
O1924      C1926   1.282       .  A
O1925     Ni1936   1.945       .  S
C1926      O1932   1.280       .  A
C1926      C2757   1.522       .  S
C1927      C2745   1.425       .  S
H1928      O1929   0.966       .  S
O1929     Ni1937   1.928       .  S
O1929     Ni1931   1.909       .  S
O1929     Ni1936   1.921       .  S
O1930     Ni1931   1.926       .  S
Ni1931     O1935   1.909       .  S
Ni1931     O1933   1.918       .  S
O1932     Ni1937   1.952       .  S
C1934      O1935   1.269       .  A
O1939      C1960   1.276       .  A
O1939     Ni1945   1.944       .  S
O1940      C1949   1.273       .  A
O1940     Ni1963   1.913       .  S
O1941     Ni1945   1.908       .  S
O1941     Ni1963   1.908       .  S
O1941     Ni1957   1.920       .  S
O1941      H1964   0.966       .  S
C1942      O1959   1.269       .  A
C1942      O1951   1.272       .  A
C1942      C2721   1.418       .  S
O1943      C1949   1.278       .  A
O1943     Ni1962   1.898       .  S
O1944      C1946   1.284       .  A
O1944     Ni1962   1.956       .  S
Ni1945     O1948   1.936       .  S
Ni1945     O1950   1.901       .  S
C1946      O1956   1.275       .  A
C1946      C2733   1.521       .  S
O1947      C1953   1.281       .  A
O1947     Ni1963   1.928       .  S
O1948      C1953   1.282       .  A
O1950      C1952   1.265       .  A
O1951     Ni1962   1.881       .  S
C1952      O1958   1.273       .  A
C1952      C2976   1.481       .  S
C1953      C3009   1.484       .  S
H1954      O1955   0.967       .  S
O1955     Ni1963   1.904       .  S
O1955     Ni1957   1.865       .  S
O1955     Ni1962   1.887       .  S
O1956     Ni1957   1.941       .  S
Ni1957     O1961   1.881       .  S
Ni1957     O1959   1.884       .  S
O1958     Ni1963   1.930       .  S
C1960      O1961   1.255       .  A
O1965      C1986   1.274       .  A
O1965     Ni1971   1.947       .  S
O1966      C1975   1.275       .  A
O1966     Ni1989   1.957       .  S
O1967     Ni1989   1.925       .  S
O1967      H1990   0.966       .  S
C1968      O1985   1.286       .  A
C1968      O1977   1.272       .  A
C1968      C3120   1.494       .  S
O1969      C1975   1.268       .  A
O1970      C1972   1.267       .  A
Ni1971     O1976   1.886       .  S
C1972      O1982   1.272   1_655  A
C1972      C3156   1.458       .  S
O1973      C1979   1.274       .  A
O1973     Ni1989   1.910       .  S
O1974      C1979   1.279       .  A
C1975      C2053   1.498       .  S
O1976      C1978   1.265       .  A
O1977     Ni1988   1.907       .  S
C1978      O1984   1.270       .  A
C1978      C2772   1.443       .  S
C1979      C2805   1.500       .  S
H1980      O1981   0.966       .  S
O1981     Ni1983   1.923       .  S
O1981     Ni1988   1.899       .  S
Ni1983     O1987   1.958       .  S
Ni1983     O1985   1.943       .  S
C1986      O1987   1.281       .  A
C1986      C2012   1.507       .  S
O1991      C2012   1.280       .  A
O1991     Ni1997   1.963       .  S
O1992      C2001   1.277       .  A
O1992     Ni2015   1.958       .  S
O1993     Ni1997   1.929       .  S
O1993     Ni2015   1.946   1_554  S
O1993     Ni2009   1.965   1_554  S
O1993      H2016   0.966       .  S
C1994      O2011   1.287       .  A
C1994      O2003   1.274       .  A
C1994      C3165   1.500       .  S
O1995      C2001   1.261       .  A
O1995     Ni2014   1.899       .  S
O1996      C1998   1.263       .  A
O1996     Ni2014   1.899       .  S
Ni1997     O2000   1.966       .  S
Ni1997     O2002   1.876       .  S
C1998      O2008   1.263   1_556  A
C1998      C3105   1.446   1_556  S
O1999      C2005   1.277       .  A
O1999     Ni2015   1.941       .  S
O2000      C2005   1.282   1_554  A
C2001      C2027   1.488       .  S
O2002      C2004   1.266   1_554  A
O2003     Ni2014   1.910       .  S
C2004      O2010   1.276       .  A
C2004      C2868   1.441       .  S
C2005      C2736   1.529       .  S
H2006      O2007   0.966       .  S
O2007     Ni2015   1.914       .  S
O2007     Ni2009   1.899       .  S
O2007     Ni2014   1.912       .  S
O2008     Ni2009   1.888   1_554  S
Ni2009     O2013   1.933   1_556  S
Ni2009     O2011   1.952       .  S
O2010     Ni2015   1.912       .  S
C2012      O2013   1.269       .  A
O2017      C2038   1.266       .  A
O2017     Ni2023   1.908       .  S
O2018      C2027   1.265       .  A
O2018     Ni2041   1.932       .  S
O2019     Ni2023   1.926       .  S
O2019     Ni2041   1.940       .  S
O2019     Ni2035   1.966       .  S
O2019      H2042   0.966       .  S
C2020      O2037   1.285       .  A
C2020      O2029   1.271       .  A
C2020      C2697   1.493       .  S
O2021      C2027   1.272       .  A
O2021     Ni2040   1.928       .  S
O2022      C2024   1.275       .  A
O2022     Ni2040   1.920       .  S
Ni2023     O2026   1.931       .  S
Ni2023     O2028   1.880       .  S
C2024      O2034   1.272       .  A
C2024      C2712   1.467       .  S
O2025      C2031   1.275       .  A
O2025     Ni2041   1.943       .  S
O2026      C2031   1.270       .  A
O2028      C2030   1.264       .  A
O2029     Ni2040   1.907       .  S
C2030      O2036   1.265       .  A
C2030      C2724   1.447       .  S
C2031      C2880   1.507       .  S
H2032      O2033   0.966       .  S
O2033     Ni2041   1.911       .  S
O2033     Ni2035   1.914       .  S
O2033     Ni2040   1.910       .  S
O2034     Ni2035   1.908       .  S
Ni2035     O2039   1.959       .  S
Ni2035     O2037   1.950       .  S
O2036     Ni2041   1.880       .  S
C2038      O2039   1.279       .  A
C2038      C2064   1.499       .  S
O2043      C2064   1.279       .  A
O2043     Ni2049   1.947       .  S
O2044      C2053   1.278       .  A
O2044     Ni2067   1.964       .  S
O2045     Ni2049   1.900       .  S
O2045     Ni2067   1.922       .  S
O2045     Ni2061   1.913       .  S
O2045      H2068   0.966       .  S
C2046      O2063   1.276       .  A
C2046      O2055   1.276       .  A
C2046      C2685   1.478       .  S
O2047      C2053   1.270       .  A
O2047     Ni2066   1.919       .  S
O2048      C2050   1.268       .  A
O2048     Ni2066   1.905       .  S
Ni2049     O2052   1.931       .  S
Ni2049     O2054   1.905       .  S
C2050      O2060   1.270       .  A
C2050      C2673   1.467       .  S
O2051      C2057   1.283       .  A
O2051     Ni2067   1.932       .  S
O2052      C2057   1.279       .  A
O2054      C2056   1.269       .  A
O2055     Ni2066   1.926       .  S
C2056      O2062   1.271       .  A
C2056      C2796   1.460       .  S
C2057      C2784   1.489       .  S
H2058      O2059   0.966       .  S
O2059     Ni2067   1.928       .  S
O2059     Ni2061   1.906       .  S
O2059     Ni2066   1.902       .  S
O2060     Ni2061   1.907       .  S
Ni2061     O2065   1.940       .  S
Ni2061     O2063   1.914       .  S
O2062     Ni2067   1.913       .  S
C2064      O2065   1.271       .  A
O2069      C2090   1.279       .  A
O2069     Ni2075   1.912       .  S
O2070      C2079   1.261       .  A
O2071     Ni2075   1.888       .  S
O2071     Ni2093   1.867       .  S
O2071     Ni2087   1.903       .  S
O2071      H2094   0.967       .  S
C2072      O2089   1.280       .  A
C2072      O2081   1.281       .  A
C2072      C2700   1.483       .  S
O2073      C2079   1.269       .  A
O2074      C2076   1.263       .  A
O2074     Ni2092   1.880       .  S
Ni2075     O2078   1.887       .  S
Ni2075     O2080   1.955       .  S
C2076      O2086   1.274       .  A
C2076      C2676   1.470       .  S
O2078      C2083   1.273       .  A
C2079      C2105   1.459       .  S
O2080      C2082   1.284       .  A
O2081     Ni2092   1.929       .  S
C2082      O2088   1.277       .  A
C2082      C2661   1.519       .  S
C2083      C2649   1.436       .  S
H2084      O2085   0.966       .  S
O2085     Ni2093   1.920       .  S
O2085     Ni2087   1.901       .  S
O2085     Ni2092   1.917       .  S
O2086     Ni2087   1.934       .  S
Ni2087     O2091   1.909       .  S
Ni2087     O2089   1.921       .  S
O2088     Ni2093   1.945       .  S
C2090      O2091   1.272       .  A
C2090      C2116   1.477       .  S
O2095      C2116   1.282       .  A
O2095     Ni2101   1.920       .  S
O2096      C2105   1.252       .  A
O2096     Ni2119   1.860       .  S
O2097     Ni2101   1.879       .  S
O2097     Ni2119   1.864       .  S
O2097     Ni2113   1.889       .  S
O2097      H2120   0.966       .  S
C2098      O2115   1.281       .  A
C2098      O2107   1.280       .  A
C2098      C2688   1.483       .  S
O2099      C2105   1.270       .  A
O2099     Ni2118   1.946       .  S
O2100      C2102   1.265       .  A
O2100     Ni2118   1.896       .  S
Ni2101     O2104   1.898       .  S
Ni2101     O2106   1.963       .  S
C2102      O2112   1.272       .  A
C2102      C2709   1.473       .  S
O2103      C2109   1.267       .  A
O2103     Ni2119   1.882       .  S
O2104      C2109   1.279       .  A
O2106      C2108   1.284       .  A
O2107     Ni2118   1.928       .  S
C2108      O2114   1.276       .  A
C2108      C2637   1.529       .  S
C2109      C2625   1.434       .  S
H2110      O2111   0.966       .  S
O2111     Ni2119   1.904       .  S
O2111     Ni2113   1.904       .  S
O2111     Ni2118   1.923       .  S
O2112     Ni2113   1.932       .  S
Ni2113     O2117   1.910       .  S
Ni2113     O2115   1.916       .  S
O2114     Ni2119   1.943       .  S
C2116      O2117   1.275       .  A
O2121      C2142   1.280       .  A
O2121     Ni2127   1.950       .  S
O2122      C2131   1.272       .  A
O2122     Ni2145   1.936       .  S
O2123     Ni2127   1.920       .  S
O2123     Ni2145   1.933       .  S
O2123     Ni2139   1.959       .  S
O2123      H2146   0.966       .  S
C2124      O2141   1.282       .  A
C2124      O2133   1.276       .  A
C2124      C2832   1.511       .  S
O2125      C2131   1.268       .  A
O2125     Ni2144   1.926       .  S
O2126      C2128   1.264       .  A
O2126     Ni2144   1.889       .  S
Ni2127     O2130   1.970       .  S
Ni2127     O2132   1.888       .  S
C2128      O2138   1.266       .  A
C2128      C2841   1.449       .  S
O2129      C2135   1.278       .  A
O2129     Ni2145   1.943       .  S
O2130      C2135   1.281       .  A
C2131      C2183   1.481       .  S
O2132      C2134   1.267       .  A
O2133     Ni2144   1.929       .  S
C2134      O2140   1.274       .  A
C2134      C2613   1.452       .  S
C2135      C2601   1.529       .  S
H2136      O2137   0.966       .  S
O2137     Ni2145   1.920       .  S
O2137     Ni2139   1.913       .  S
O2137     Ni2144   1.918       .  S
O2138     Ni2139   1.892       .  S
Ni2139     O2143   1.934       .  S
Ni2139     O2141   1.951       .  S
O2140     Ni2145   1.915       .  S
C2142      O2143   1.269       .  A
C2142      C2220   1.499       .  S
O2147      C2168   1.273       .  A
O2147     Ni2153   1.931       .  S
O2148      C2157   1.271       .  A
O2148     Ni2171   1.936       .  S
O2149     Ni2153   1.919       .  S
O2149     Ni2165   1.922       .  S
C2150      O2167   1.275       .  A
C2150      O2159   1.278       .  A
C2150      C2901   1.514       .  S
O2151      C2157   1.274       .  A
O2152      C2154   1.264       .  A
Ni2153     O2158   1.905       .  S
C2154      C2748   1.447       .  S
O2155      C2161   1.274       .  A
O2155     Ni2171   1.926       .  S
O2156      C2161   1.272       .  A
C2157      C2209   1.495       .  S
O2158      C2160   1.272       .  A
O2159     Ni2170   1.956       .  S
C2160      O2166   1.274       .  A
C2160      C2589   1.456       .  S
C2161      C2577   1.497       .  S
H2162      O2163   0.966       .  S
O2163     Ni2165   1.930       .  S
O2163     Ni2170   1.927       .  S
O2164     Ni2165   1.885       .  S
Ni2165     O2169   1.921       .  S
Ni2165     O2167   1.933       .  S
C2168      O2169   1.263       .  A
C2168      C2194   1.475       .  S
O2173      C2194   1.262       .  A
O2173     Ni2179   1.895       .  S
O2174      C2183   1.267       .  A
O2174     Ni2197   1.922       .  S
O2175     Ni2179   1.923       .  S
O2175     Ni2197   1.930       .  S
O2175     Ni2191   1.959       .  S
O2175      H2198   0.966       .  S
C2176      O2193   1.286       .  A
C2176      O2185   1.276       .  A
C2176      C2760   1.531       .  S
O2177      C2183   1.273       .  A
O2177     Ni2196   1.933       .  S
O2178      C2180   1.267       .  A
O2178     Ni2196   1.891       .  S
Ni2179     O2182   1.929       .  S
Ni2179     O2184   1.877       .  S
C2180      O2190   1.271       .  A
C2180      C2892   1.444       .  S
O2181      C2187   1.280       .  A
O2181     Ni2197   1.963       .  S
O2182      C2187   1.269       .  A
O2184      C2186   1.261       .  A
O2185     Ni2196   1.944       .  S
C2186      O2192   1.270       .  A
C2186      C2553   1.434       .  S
C2187      C2568   1.523       .  S
H2188      O2189   0.966       .  S
O2189     Ni2197   1.944       .  S
O2189     Ni2191   1.926       .  S
O2189     Ni2196   1.921       .  S
O2190     Ni2191   1.901       .  S
Ni2191     O2195   1.943       .  S
Ni2191     O2193   1.968       .  S
O2192     Ni2197   1.897       .  S
C2194      O2195   1.276       .  A
O2199      C2220   1.264   1_556  A
O2199     Ni2205   1.915       .  S
O2200      C2209   1.274       .  A
O2200     Ni2223   1.947       .  S
O2201     Ni2205   1.915       .  S
O2201     Ni2223   1.935       .  S
O2201     Ni2217   1.918       .  S
O2201      H2224   0.966       .  S
C2202      O2219   1.273       .  A
C2202      O2211   1.270       .  A
C2202      C2856   1.485       .  S
O2203      C2209   1.270       .  A
O2203     Ni2222   1.929       .  S
O2204      C2206   1.269       .  A
O2204     Ni2222   1.892       .  S
Ni2205     O2208   1.916       .  S
Ni2205     O2210   1.882       .  S
C2206      O2216   1.278       .  A
C2206      C2820   1.449       .  S
O2207      C2213   1.278       .  A
O2207     Ni2223   1.934       .  S
O2208      C2213   1.270       .  A
O2210      C2212   1.262       .  A
O2211     Ni2222   1.932       .  S
C2212      O2218   1.271       .  A
C2212      C2529   1.454       .  S
C2213      C2541   1.494       .  S
H2214      O2215   0.966       .  S
O2215     Ni2223   1.945       .  S
O2215     Ni2217   1.942       .  S
O2215     Ni2222   1.929       .  S
O2216     Ni2217   1.935       .  S
Ni2217     O2221   1.967       .  S
Ni2217     O2219   1.919       .  S
O2218     Ni2223   1.921       .  S
C2220      O2221   1.281   1_554  A
O2225      C2246   1.268       .  A
O2225     Ni2231   1.906       .  S
O2226      C2235   1.270   1_545  A
O2226     Ni2249   1.916       .  S
O2227     Ni2231   1.915   1_556  S
O2227     Ni2249   1.910       .  S
O2227     Ni2243   1.947   1_545  S
O2227      H2250   0.966   1_545  S
C2228      O2245   1.284       .  A
C2228      O2237   1.282       .  A
C2228      C3192   1.537       .  S
O2229      C2235   1.273       .  A
O2229     Ni2248   1.941       .  S
O2230      C2232   1.261       .  A
O2230     Ni2248   1.873       .  S
Ni2231     O2234   1.923   1_554  S
Ni2231     O2236   1.897   1_554  S
C2232      O2242   1.266       .  A
C2232      C3129   1.425       .  S
O2233      C2239   1.278       .  A
O2233     Ni2249   1.954       .  S
O2234      C2239   1.269       .  A
C2235      C2287   1.485       .  S
O2236      C2238   1.270       .  A
O2237     Ni2248   1.959       .  S
C2238      O2244   1.279       .  A
C2238      C2517   1.462       .  S
C2239      C2505   1.506       .  S
H2240      O2241   0.966   1_545  S
O2241     Ni2249   1.946   1_565  S
O2241     Ni2243   1.913       .  S
O2241     Ni2248   1.922       .  S
O2242     Ni2243   1.885       .  S
Ni2243     O2247   1.919   1_556  S
Ni2243     O2245   1.960       .  S
O2244     Ni2249   1.926       .  S
C2246      O2247   1.268   1_545  A
C2246      C2272   1.463       .  S
O2251      C2272   1.260       .  A
O2251     Ni2257   1.899       .  S
O2252      C2261   1.273       .  A
O2252     Ni2275   1.925       .  S
O2253     Ni2257   1.896       .  S
O2253     Ni2275   1.888       .  S
O2253     Ni2269   1.920   1_545  S
O2253      H2276   0.966   1_545  S
C2254      O2271   1.277       .  A
C2254      O2263   1.280       .  A
C2254      C3144   1.507       .  S
O2255      C2261   1.273   1_565  A
O2255     Ni2274   1.932       .  S
O2256      C2258   1.261       .  A
O2256     Ni2274   1.870       .  S
Ni2257     O2260   1.911       .  S
Ni2257     O2262   1.884       .  S
C2258      O2268   1.268       .  A
C2258      C3180   1.438       .  S
O2259      C2265   1.285       .  A
O2259     Ni2275   1.943       .  S
O2260      C2265   1.275       .  A
C2261      C2313   1.483       .  S
O2262      C2264   1.261       .  A
O2263     Ni2274   1.953       .  S
C2264      O2270   1.268       .  A
C2264      C2481   1.439       .  S
C2265      C2496   1.494       .  S
H2266      O2267   0.966   1_545  S
O2267     Ni2275   1.946   1_565  S
O2267     Ni2269   1.925       .  S
O2267     Ni2274   1.906       .  S
O2268     Ni2269   1.898       .  S
Ni2269     O2273   1.936       .  S
Ni2269     O2271   1.931       .  S
O2270     Ni2275   1.901       .  S
C2272      O2273   1.268   1_545  A
O2277      C2298   1.267       .  A
O2277     Ni2283   1.917       .  S
O2278      C2287   1.266   1_545  A
O2278     Ni2301   1.906       .  S
O2279     Ni2283   1.910       .  S
O2279     Ni2301   1.902       .  S
O2279     Ni2295   1.931   1_545  S
O2279      H2302   0.966   1_545  S
C2280      O2297   1.291       .  A
C2280      O2289   1.288       .  A
C2280      C2664   1.531       .  S
O2281      C2287   1.279       .  A
O2281     Ni2300   1.957       .  S
O2282      C2284   1.258       .  A
O2282     Ni2300   1.884       .  S
Ni2283     O2286   1.934       .  S
Ni2283     O2288   1.876       .  S
C2284      O2294   1.260       .  A
C2284      C2628   1.456       .  S
O2285      C2291   1.274       .  A
O2285     Ni2301   1.922       .  S
O2286      C2291   1.276       .  A
O2288      C2290   1.265       .  A
O2289     Ni2300   1.968       .  S
C2290      O2296   1.267       .  A
C2290      C2457   1.437       .  S
C2291      C2469   1.500       .  S
H2292      O2293   0.966       .  S
O2293     Ni2301   1.917   1_565  S
O2293     Ni2295   1.925       .  S
O2293     Ni2300   1.899       .  S
O2294     Ni2295   1.900       .  S
Ni2295     O2299   1.923       .  S
Ni2295     O2297   1.962       .  S
O2296     Ni2301   1.890       .  S
C2298      O2299   1.273   1_545  A
C2298      C2324   1.467       .  S
O2303      C2324   1.276       .  A
O2303     Ni2309   1.941       .  S
O2304      C2313   1.266       .  A
O2304     Ni2327   1.919       .  S
O2305     Ni2309   1.923       .  S
O2305     Ni2321   1.914   1_545  S
C2306      O2323   1.275       .  A
C2306      O2315   1.282       .  A
C2306      C2640   1.533       .  S
O2307      C2313   1.276   1_565  A
O2308      C2310   1.259       .  A
Ni2309     O2314   1.916       .  S
C2310      C2652   1.460       .  S
O2311      C2317   1.282       .  A
O2311     Ni2327   1.940       .  S
O2312      C2317   1.276       .  A
O2314      C2316   1.271       .  A
O2315     Ni2326   1.978       .  S
C2316      O2322   1.267       .  A
C2316      C2445   1.468       .  S
C2317      C2433   1.511       .  S
H2318      O2319   0.966   1_545  S
O2319     Ni2321   1.928       .  S
O2319     Ni2326   1.926       .  S
O2320     Ni2321   1.916       .  S
Ni2321     O2325   1.896       .  S
Ni2321     O2323   1.940       .  S
C2324      O2325   1.260   1_545  A
O2329      C2350   1.267       .  A
O2329     Ni2335   1.927       .  S
O2330      C2339   1.269       .  A
O2331     Ni2335   1.929       .  S
O2331     Ni2353   1.923       .  S
O2331     Ni2347   1.924       .  S
O2331      H2354   0.966       .  S
C2332      O2349   1.268       .  A
C2332      O2341   1.270       .  A
C2332      C2556   1.430       .  S
O2333      C2339   1.271       .  A
O2334      C2336   1.280       .  A
O2334     Ni2352   1.949       .  S
Ni2335     O2338   1.926       .  S
Ni2335     O2340   1.890       .  S
C2336      O2346   1.280       .  A
C2336      C2604   1.525       .  S
O2338      C2343   1.277       .  A
C2339      C2391   1.477       .  S
O2340      C2342   1.261       .  A
O2341     Ni2352   1.879       .  S
C2342      O2348   1.270       .  A
C2342      C2448   1.467       .  S
H2344      O2345   0.966       .  S
O2345     Ni2353   1.918       .  S
O2345     Ni2347   1.865       .  S
O2345     Ni2352   1.898       .  S
O2346     Ni2347   1.953       .  S
Ni2347     O2351   1.879       .  S
Ni2347     O2349   1.883       .  S
O2348     Ni2353   1.919       .  S
C2350      O2351   1.255       .  A
C2350      C2402   1.462       .  S
O2355      C2376   1.267       .  A
O2355     Ni2361   1.896       .  S
O2356      C2365   1.293       .  A
O2356     Ni2379   1.958       .  S
O2357     Ni2361   1.918       .  S
O2357     Ni2379   1.951       .  S
O2357     Ni2373   1.973       .  S
O2357      H2380   0.966       .  S
C2358      O2375   1.297       .  A
C2358      O2367   1.288       .  A
C2358      C2520   1.458       .  S
O2359      C2365   1.279       .  A
O2359     Ni2378   1.893       .  S
O2360      C2362   1.265       .  A
O2360     Ni2378   1.918       .  S
Ni2361     O2364   1.930       .  S
Ni2361     O2366   1.875       .  S
C2362      O2372   1.272       .  A
C2362      C2472   1.492       .  S
O2363      C2369   1.267       .  A
O2363     Ni2379   1.910       .  S
O2364      C2369   1.268       .  A
C2365      C2417   1.467       .  S
O2366      C2368   1.263       .  A
O2367     Ni2378   1.915       .  S
C2368      O2374   1.273       .  A
C2368      C2532   1.464       .  S
C2369      C2580   1.485       .  S
H2370      O2371   0.967       .  S
O2371     Ni2379   1.836       .  S
O2371     Ni2373   1.810       .  S
O2371     Ni2378   1.850       .  S
O2372     Ni2373   1.933       .  S
Ni2373     O2377   1.909       .  S
Ni2373     O2375   1.937       .  S
O2374     Ni2379   1.925       .  S
C2376      O2377   1.269       .  A
C2376      C2428   1.462       .  S
O2381      C2402   1.267       .  A
O2381     Ni2387   1.921       .  S
O2382      C2391   1.266       .  A
O2382     Ni2405   1.903       .  S
O2383     Ni2387   1.932       .  S
O2383     Ni2405   1.924       .  S
O2383     Ni2399   1.954       .  S
O2383      H2406   0.966       .  S
C2384      O2401   1.277       .  A
C2384      O2393   1.271       .  A
C2384      C2616   1.446       .  S
O2385      C2391   1.278       .  A
O2385     Ni2404   1.893       .  S
O2386      C2388   1.284       .  A
O2386     Ni2404   1.956       .  S
Ni2387     O2390   1.936       .  S
Ni2387     O2392   1.872       .  S
C2388      O2398   1.274       .  A
C2388      C2565   1.511       .  S
O2389      C2395   1.275       .  A
O2389     Ni2405   1.934       .  S
O2390      C2395   1.276       .  A
O2392      C2394   1.260       .  A
O2393     Ni2404   1.887       .  S
C2394      O2400   1.268       .  A
C2394      C2484   1.459       .  S
C2395      C2436   1.497       .  S
H2396      O2397   0.967       .  S
O2397     Ni2405   1.918       .  S
O2397     Ni2399   1.857       .  S
O2397     Ni2404   1.896       .  S
O2398     Ni2399   1.930       .  S
Ni2399     O2403   1.885       .  S
Ni2399     O2401   1.909       .  S
O2400     Ni2405   1.904       .  S
C2402      O2403   1.258       .  A
O2407      C2428   1.276       .  A
O2407     Ni2413   1.943       .  S
O2408      C2417   1.270       .  A
O2409     Ni2413   1.901       .  S
O2409     Ni2431   1.905       .  S
O2409     Ni2425   1.924       .  S
O2409      H2432   0.966       .  S
C2410      O2427   1.277       .  A
C2410      O2419   1.274       .  A
C2410      C2460   1.419       .  S
O2411      C2417   1.268       .  A
O2412      C2414   1.272       .  A
O2412     Ni2430   1.940       .  S
Ni2413     O2416   1.946       .  S
Ni2413     O2418   1.881       .  S
C2414      O2424   1.272       .  A
C2414      C2508   1.512       .  S
O2415      C2421   1.278       .  A
O2415     Ni2431   1.909       .  S
O2416      C2421   1.284       .  A
O2418      C2420   1.263       .  A
O2419     Ni2430   1.877       .  S
C2420      O2426   1.274       .  A
C2420      C2592   1.468       .  S
C2421      C2544   1.486       .  S
H2422      O2423   0.967       .  S
O2423     Ni2431   1.905       .  S
O2423     Ni2425   1.851       .  S
O2423     Ni2430   1.875       .  S
O2424     Ni2425   1.925       .  S
Ni2425     O2429   1.875       .  S
Ni2425     O2427   1.900       .  S
O2426     Ni2431   1.931       .  S
C2428      O2429   1.254       .  A
C2433      C2434   1.406       .  A
C2433      C2438   1.424       .  A
C2434      C2435   1.408       .  A
C2434      H2439   1.083       .  S
C2435      C2436   1.413       .  A
C2435      O2440   1.370       .  S
C2436      C2437   1.401       .  A
C2437      C2438   1.413       .  A
C2437      H2441   1.083       .  S
C2438      O2442   1.371       .  S
O2440      H2444   0.992       .  S
O2442      H2443   0.992       .  S
C2445      C2446   1.401       .  A
C2445      C2450   1.413       .  A
C2446      C2447   1.403       .  A
C2446      H2451   1.083       .  S
C2447      C2448   1.413       .  A
C2447      O2452   1.371       .  S
C2448      C2449   1.396       .  A
C2449      C2450   1.386       .  A
O2452      H2456   0.992       .  S
O2454      H2455   0.992       .  S
C2457      C2458   1.402       .  A
C2457      C2462   1.406       .  A
C2458      C2459   1.383       .  A
C2458      H2463   1.084       .  S
C2459      C2460   1.398       .  A
C2459      O2464   1.372       .  S
C2460      C2461   1.395       .  A
C2461      C2462   1.378       .  A
C2461      H2465   1.085       .  S
C2462      O2466   1.373       .  S
O2464      H2468   0.992       .  S
O2466      H2467   0.992       .  S
C2469      C2470   1.408       .  A
C2469      C2474   1.413       .  A
C2470      C2471   1.400       .  A
C2470      H2475   1.080       .  S
C2471      C2472   1.407       .  A
C2471      O2476   1.374       .  S
C2472      C2473   1.411       .  A
C2473      C2474   1.416       .  A
C2473      H2477   1.083       .  S
C2474      O2478   1.371       .  S
O2476      H2480   0.991       .  S
O2478      H2479   0.992       .  S
C2481      C2482   1.393       .  A
C2481      C2486   1.402       .  A
C2482      C2483   1.384       .  A
C2482      H2487   1.084       .  S
C2483      C2484   1.414       .  A
C2483      O2488   1.372       .  S
C2484      C2485   1.403       .  A
C2485      C2486   1.387       .  A
C2485      H2489   1.084       .  S
C2486      O2490   1.371       .  S
O2488      H2492   0.992       .  S
O2490      H2491   0.992       .  S
C2493      C2494   1.398   1_455  A
C2494      C2495   1.408       .  A
C2494      H2499   1.083       .  S
C2495      C2496   1.422       .  A
C2495      O2500   1.372       .  S
C2496      C2497   1.403   1_655  A
C2497      H2501   1.084       .  S
C2498      O2502   1.371       .  S
O2500      H2504   0.991       .  S
O2502      H2503   0.991       .  S
C2505      C2506   1.409       .  A
C2505      C2510   1.413       .  A
C2506      C2507   1.422       .  A
C2506      H2511   1.083       .  S
C2507      C2508   1.422       .  A
C2507      O2512   1.370       .  S
C2508      C2509   1.406       .  A
C2509      C2510   1.400       .  A
C2509      H2513   1.083       .  S
C2510      O2514   1.371       .  S
O2512      H2516   0.992       .  S
O2514      H2515   0.992       .  S
C2517      C2518   1.398       .  A
C2517      C2522   1.412       .  A
C2518      C2519   1.386       .  A
C2518      H2523   1.084       .  S
C2519      C2520   1.408       .  A
C2519      O2524   1.373       .  S
C2520      C2521   1.399       .  A
C2521      C2522   1.403       .  A
C2521      H2525   1.084       .  S
C2522      O2526   1.375       .  S
O2524      H2528   0.992       .  S
O2526      H2527   0.991       .  S
C2529      C2530   1.401       .  A
C2529      C2534   1.404       .  A
C2530      C2531   1.389       .  A
C2530      H2535   1.084       .  S
C2531      C2532   1.410       .  A
C2531      O2536   1.372       .  S
C2532      C2533   1.407       .  A
C2533      C2534   1.389       .  A
C2533      H2537   1.084       .  S
C2534      O2538   1.372       .  S
O2536      H2540   0.992       .  S
O2538      H2539   0.992       .  S
C2541      C2542   1.406   1_655  A
C2541      C2546   1.420       .  A
C2542      H2547   1.083       .  S
C2543      C2544   1.414       .  A
C2543      O2548   1.370       .  S
C2545      C2546   1.396       .  A
C2545      H2549   1.084       .  S
C2546      O2550   1.372       .  S
O2548      H2552   0.992       .  S
O2550      H2551   0.992       .  S
C2553      C2554   1.402       .  A
C2553      C2558   1.400       .  A
C2554      C2555   1.375       .  A
C2554      H2559   1.084       .  S
C2555      C2556   1.397       .  A
C2555      O2560   1.373       .  S
C2556      C2557   1.403       .  A
C2557      C2558   1.387       .  A
C2557      H2561   1.084       .  S
C2558      O2562   1.371       .  S
O2560      H2564   0.993       .  S
O2562      H2563   0.992       .  S
C2565      C2566   1.415       .  A
C2565      C2570   1.409       .  A
C2566      C2567   1.425       .  A
C2566      H2571   1.083       .  S
C2567      C2568   1.416       .  A
C2567      O2572   1.370       .  S
C2568      C2569   1.415       .  A
C2569      C2570   1.407       .  A
C2569      H2573   1.083       .  S
C2570      O2574   1.372       .  S
O2572      H2576   0.992       .  S
O2574      H2575   0.992       .  S
C2577      C2578   1.413       .  A
C2577      C2582   1.413       .  A
C2578      C2579   1.400       .  A
C2578      H2583   1.083       .  S
C2579      C2580   1.404       .  A
C2579      O2584   1.372       .  S
C2580      C2581   1.409       .  A
C2581      C2582   1.407       .  A
C2581      H2585   1.084       .  S
C2582      O2586   1.371       .  S
O2584      H2588   0.992       .  S
O2586      H2587   0.992       .  S
C2589      C2590   1.396       .  A
C2589      C2594   1.407       .  A
C2590      C2591   1.390       .  A
C2590      H2595   1.084       .  S
C2591      C2592   1.412       .  A
C2591      O2596   1.372       .  S
C2592      C2593   1.402       .  A
C2593      C2594   1.399       .  A
C2593      H2597   1.084       .  S
C2594      O2598   1.372       .  S
O2596      H2600   0.992       .  S
O2598      H2599   0.992       .  S
C2601      C2602   1.412       .  A
C2601      C2606   1.422       .  A
C2602      C2603   1.421       .  A
C2602      H2607   1.083       .  S
C2603      C2604   1.420       .  A
C2603      O2608   1.371       .  S
C2604      C2605   1.409       .  A
C2605      C2606   1.417       .  A
C2605      H2609   1.083       .  S
C2606      O2610   1.371       .  S
O2608      H2612   0.992       .  S
O2610      H2611   0.992       .  S
C2613      C2614   1.404       .  A
C2613      C2618   1.403       .  A
C2614      C2615   1.383       .  A
C2614      H2619   1.084       .  S
C2615      C2616   1.400       .  A
C2615      O2620   1.372       .  S
C2616      C2617   1.405       .  A
C2617      C2618   1.392       .  A
C2617      H2621   1.084       .  S
C2618      O2622   1.372       .  S
O2620      H2624   0.992       .  S
O2622      H2623   0.992       .  S
C2625      C2626   1.386       .  A
C2625      C2630   1.401       .  A
C2626      C2627   1.386       .  A
C2626      H2631   1.080       .  S
C2627      C2628   1.417       .  A
C2627      O2632   1.376       .  S
C2628      C2629   1.405       .  A
C2629      C2630   1.389       .  A
C2629      H2633   1.084       .  S
C2630      O2634   1.371       .  S
O2632      H2636   0.991       .  S
O2634      H2635   0.991       .  S
C2637      C2638   1.413       .  A
C2637      C2642   1.419       .  A
C2638      C2639   1.424       .  A
C2638      H2643   1.083       .  S
C2639      C2640   1.421       .  A
C2639      O2644   1.371       .  S
C2640      C2641   1.413       .  A
C2641      C2642   1.417       .  A
C2641      H2645   1.083       .  S
C2642      O2646   1.371       .  S
O2644      H2648   0.992       .  S
O2646      H2647   0.992       .  S
C2649      C2650   1.399       .  A
C2649      C2654   1.397   1_655  A
C2650      C2651   1.389       .  A
C2650      H2655   1.084       .  S
C2651      C2652   1.411       .  A
C2651      O2656   1.372       .  S
C2652      C2653   1.407   1_655  A
C2653      C2654   1.384       .  A
C2653      H2657   1.084       .  S
C2654      O2658   1.369       .  S
O2656      H2660   0.992       .  S
O2658      H2659   0.992       .  S
C2661      C2662   1.414       .  A
C2662      C2663   1.423       .  A
C2662      H2667   1.083       .  S
C2663      O2668   1.371       .  S
C2664      C2665   1.416       .  A
C2665      C2666   1.415       .  A
C2665      H2669   1.083       .  S
C2666      O2670   1.372       .  S
O2668      H2672   0.992       .  S
O2670      H2671   0.992       .  S
C2673      C2674   1.408       .  A
C2673      C2678   1.404       .  A
C2674      C2675   1.399       .  A
C2674      H2679   1.084       .  S
C2675      C2676   1.405       .  A
C2675      O2680   1.371       .  S
C2676      C2677   1.407       .  A
C2677      C2678   1.388       .  A
C2677      H2681   1.083       .  S
C2678      O2682   1.372       .  S
O2680      H2684   0.992       .  S
O2682      H2683   0.992       .  S
C2685      C2686   1.407       .  A
C2685      C2690   1.410       .  A
C2686      C2687   1.411       .  A
C2686      H2691   1.083       .  S
C2687      C2688   1.413       .  A
C2687      O2692   1.371       .  S
C2688      C2689   1.403       .  A
C2689      C2690   1.388       .  A
C2689      H2693   1.084       .  S
C2690      O2694   1.373       .  S
O2692      H2696   0.992       .  S
O2694      H2695   0.992       .  S
C2697      C2698   1.405       .  A
C2697      C2702   1.418       .  A
C2698      C2699   1.413       .  A
C2698      H2703   1.083       .  S
C2699      C2700   1.416       .  A
C2699      O2704   1.371       .  S
C2700      C2701   1.396       .  A
C2701      C2702   1.394       .  A
C2701      H2705   1.084       .  S
C2702      O2706   1.371       .  S
O2704      H2708   0.992       .  S
O2706      H2707   0.991       .  S
C2709      C2710   1.403       .  A
C2709      C2714   1.410       .  A
C2710      C2711   1.391       .  A
C2710      H2715   1.084       .  S
C2711      C2712   1.407       .  A
C2711      O2716   1.372       .  S
C2712      C2713   1.403       .  A
C2713      C2714   1.402       .  A
C2713      H2717   1.083       .  S
C2714      O2718   1.372       .  S
O2716      H2720   0.992       .  S
O2718      H2719   0.992       .  S
C2721      C2722   1.398       .  A
C2721      C2726   1.392       .  A
C2722      C2723   1.385       .  A
C2722      H2727   1.084       .  S
C2723      C2724   1.405       .  A
C2723      O2728   1.372       .  S
C2724      C2725   1.410       .  A
C2725      C2726   1.375       .  A
C2725      H2729   1.084       .  S
C2726      O2730   1.373       .  S
O2728      H2732   0.992       .  S
O2730      H2731   0.992       .  S
C2733      C2734   1.410       .  A
C2733      C2738   1.417       .  A
C2734      C2735   1.417       .  A
C2734      H2739   1.083       .  S
C2735      C2736   1.421       .  A
C2735      O2740   1.371   1_556  S
C2736      C2737   1.414       .  A
C2737      C2738   1.421       .  A
C2737      H2741   1.083       .  S
C2738      O2742   1.371       .  S
O2740      H2744   0.992       .  S
O2742      H2743   0.992       .  S
C2745      C2750   1.403       .  A
C2746      C2747   1.379       .  A
C2746      H2751   1.085       .  S
C2747      O2752   1.373       .  S
C2748      C2749   1.400   1_455  A
C2749      C2750   1.384       .  A
C2749      H2753   1.084       .  S
C2750      O2754   1.372       .  S
O2752      H2756   0.992       .  S
O2754      H2755   0.992       .  S
C2757      C2758   1.417       .  A
C2758      C2759   1.425       .  A
C2758      H2763   1.083       .  S
C2759      O2764   1.370       .  S
C2760      C2761   1.418       .  A
C2761      C2762   1.415       .  A
C2761      H2765   1.083       .  S
C2762      O2766   1.372       .  S
O2764      H2768   0.992       .  S
O2766      H2767   0.992       .  S
C2769      C2770   1.402       .  A
C2769      C2774   1.415       .  A
C2770      C2771   1.387       .  A
C2770      H2775   1.084       .  S
C2771      C2772   1.405       .  A
C2772      C2773   1.394       .  A
C2773      C2774   1.386       .  A
C2773      H2777   1.084       .  S
C2774      O2778   1.372       .  S
O2776      H2780   0.992       .  S
O2778      H2779   0.992       .  S
C2781      C2782   1.408       .  A
C2782      H2787   1.084       .  S
C2783      C2784   1.409   1_455  A
C2784      C2785   1.409       .  A
C2785      C2786   1.400       .  A
C2785      H2789   1.083       .  S
C2786      O2790   1.372       .  S
O2788      H2792   0.992       .  S
O2790      H2791   0.992       .  S
C2793      C2794   1.402       .  A
C2793      C2798   1.412       .  A
C2794      C2795   1.398       .  A
C2794      H2799   1.084       .  S
C2795      C2796   1.408       .  A
C2795      O2800   1.371       .  S
C2796      C2797   1.397       .  A
C2797      C2798   1.393       .  A
C2797      H2801   1.084       .  S
C2798      O2802   1.373       .  S
O2800      H2804   0.992       .  S
O2802      H2803   0.991       .  S
C2805      C2806   1.415       .  A
C2805      C2810   1.415       .  A
C2806      C2807   1.420       .  A
C2806      H2811   1.083       .  S
C2807      C2808   1.410       .  A
C2807      O2812   1.370       .  S
C2808      C2809   1.401       .  A
C2809      C2810   1.391       .  A
C2809      H2813   1.085       .  S
C2810      O2814   1.373       .  S
O2812      H2816   0.992       .  S
O2814      H2815   0.992       .  S
C2817      C2818   1.404       .  A
C2817      C2822   1.418       .  A
C2818      C2819   1.392       .  A
C2818      H2823   1.084       .  S
C2819      C2820   1.403       .  A
C2819      O2824   1.371       .  S
C2820      C2821   1.393       .  A
C2821      C2822   1.393       .  A
C2821      H2825   1.084       .  S
C2822      O2826   1.372   1_656  S
O2824      H2828   0.992       .  S
C2829      C2830   1.404       .  A
C2829      C2834   1.418       .  A
C2830      C2831   1.405       .  A
C2830      H2835   1.084       .  S
C2831      C2832   1.419       .  A
C2831      O2836   1.372       .  S
C2832      C2833   1.410       .  A
C2833      C2834   1.418       .  A
C2833      H2837   1.083       .  S
C2834      O2838   1.371       .  S
O2836      H2840   0.992       .  S
O2838      H2839   0.991       .  S
C2841      C2842   1.402       .  A
C2841      C2846   1.404       .  A
C2842      C2843   1.391       .  A
C2842      H2847   1.084       .  S
C2843      C2844   1.404       .  A
C2843      O2848   1.372       .  S
C2844      C2845   1.404       .  A
C2845      C2846   1.384       .  A
C2845      H2849   1.084       .  S
C2846      O2850   1.373       .  S
O2848      H2852   0.992       .  S
O2850      H2851   0.991       .  S
C2853      C2854   1.406       .  A
C2853      C2858   1.414       .  A
C2854      C2855   1.416       .  A
C2854      H2859   1.083       .  S
C2855      C2856   1.416       .  A
C2855      O2860   1.371       .  S
C2856      C2857   1.397       .  A
C2857      C2858   1.394       .  A
C2857      H2861   1.084       .  S
C2858      O2862   1.370       .  S
O2860      H2864   0.992       .  S
O2862      H2863   0.992       .  S
C2865      C2866   1.408       .  A
C2865      C2870   1.400       .  A
C2866      C2867   1.378       .  A
C2866      H2871   1.084       .  S
C2867      C2868   1.395       .  A
C2867      O2872   1.373       .  S
C2868      C2869   1.407       .  A
C2869      C2870   1.394       .  A
C2869      H2873   1.084       .  S
C2870      O2874   1.371       .  S
O2872      H2876   0.992       .  S
O2874      H2875   0.992       .  S
C2877      C2878   1.413       .  A
C2877      C2882   1.410       .  A
C2878      C2879   1.417       .  A
C2878      H2883   1.083       .  S
C2879      C2880   1.412       .  A
C2879      O2884   1.371       .  S
C2880      C2881   1.412       .  A
C2881      C2882   1.405       .  A
C2881      H2885   1.084       .  S
C2882      O2886   1.372       .  S
O2884      H2888   0.992       .  S
O2886      H2887   0.992       .  S
C2889      C2890   1.391       .  A
C2889      C2894   1.408       .  A
C2890      C2891   1.378       .  A
C2890      H2895   1.085       .  S
C2891      C2892   1.410       .  A
C2891      O2896   1.372       .  S
C2892      C2893   1.398       .  A
C2893      C2894   1.392       .  A
C2893      H2897   1.084       .  S
C2894      O2898   1.371       .  S
O2896      H2900   0.992       .  S
O2898      H2899   0.992       .  S
C2901      C2902   1.411       .  A
C2901      C2906   1.416       .  A
C2902      C2903   1.409       .  A
C2902      H2907   1.083       .  S
C2903      C2904   1.413       .  A
C2903      O2908   1.372       .  S
C2904      C2905   1.412       .  A
C2905      C2906   1.418       .  A
C2905      H2909   1.083       .  S
C2906      O2910   1.371       .  S
O2908      H2912   0.992       .  S
O2910      H2911   0.992       .  S
C2913      C2914   1.405       .  A
C2913      C2918   1.409       .  A
C2914      C2915   1.381       .  A
C2914      H2919   1.084       .  S
C2915      C2916   1.396       .  A
C2915      O2920   1.373       .  S
C2916      C2917   1.398       .  A
C2917      C2918   1.389       .  A
C2917      H2921   1.085       .  S
C2918      O2922   1.373       .  S
O2920      H2924   0.992       .  S
O2922      H2923   0.992       .  S
C2925      C2926   1.407       .  A
C2925      C2930   1.413       .  A
C2926      C2927   1.417       .  A
C2926      H2931   1.083       .  S
C2927      C2928   1.417       .  A
C2927      O2932   1.371       .  S
C2928      C2929   1.403       .  A
C2929      C2930   1.395       .  A
C2929      H2933   1.084       .  S
C2930      O2934   1.372       .  S
O2932      H2936   0.992       .  S
O2934      H2935   0.992       .  S
C2937      C2938   1.403       .  A
C2937      C2942   1.416       .  A
C2938      C2939   1.384       .  A
C2938      H2943   1.084       .  S
C2939      C2940   1.399       .  A
C2939      O2944   1.372       .  S
C2940      C2941   1.390       .  A
C2941      C2942   1.375       .  A
C2941      H2945   1.086       .  S
C2942      O2946   1.373       .  S
O2944      H2948   0.992       .  S
O2946      H2947   0.992       .  S
C2949      C2950   1.401       .  A
C2949      C2954   1.415       .  A
C2950      C2951   1.405       .  A
C2950      H2955   1.084       .  S
C2951      C2952   1.423       .  A
C2951      O2956   1.372       .  S
C2952      C2953   1.410       .  A
C2953      C2954   1.415       .  A
C2953      H2957   1.083       .  S
C2954      O2958   1.371       .  S
O2956      H2960   0.992       .  S
O2958      H2959   0.992       .  S
C2961      C2962   1.412       .  A
C2961      C2966   1.412       .  A
C2962      C2963   1.408       .  A
C2962      H2967   1.083       .  S
C2963      C2964   1.408       .  A
C2963      O2968   1.371       .  S
C2964      C2965   1.409       .  A
C2965      C2966   1.408       .  A
C2965      H2969   1.084       .  S
C2966      O2970   1.371       .  S
O2968      H2972   0.992       .  S
O2970      H2971   0.992       .  S
C2973      C2974   1.397       .  A
C2973      C2978   1.410       .  A
C2974      C2975   1.399       .  A
C2974      H2979   1.084       .  S
C2975      C2976   1.418       .  A
C2975      O2980   1.373       .  S
C2976      C2977   1.402       .  A
C2977      C2978   1.398       .  A
C2977      H2981   1.084       .  S
C2978      O2982   1.372       .  S
O2980      H2984   0.991       .  S
O2982      H2983   0.992       .  S
C2985      C2990   1.418       .  A
C2986      C2987   1.404       .  A
C2986      H2991   1.083       .  S
C2987      C2988   1.414       .  A
C2987      O2992   1.372       .  S
C2989      C2990   1.408       .  A
C2989      H2993   1.083       .  S
C2990      O2994   1.371       .  S
O2992      H2996   0.992       .  S
O2994      H2995   0.992       .  S
C2997      C2998   1.413       .  A
C2997      C3002   1.410       .  A
C2998      C2999   1.397       .  A
C2998      H3003   1.083       .  S
C2999      C3000   1.398       .  A
C2999      O3004   1.372       .  S
C3000      C3001   1.401       .  A
C3001      C3002   1.395       .  A
C3001      H3005   1.084       .  S
C3002      O3006   1.372       .  S
O3006      H3007   0.992       .  S
C3009      C3010   1.407       .  A
C3009      C3014   1.405       .  A
C3010      C3011   1.401       .  A
C3010      H3015   1.084       .  S
C3011      C3012   1.409       .  A
C3011      O3016   1.372       .  S
C3012      C3013   1.413       .  A
C3013      C3014   1.408       .  A
C3013      H3017   1.083   1_556  S
C3014      O3018   1.371   1_556  S
O3016      H3020   0.992       .  S
O3018      H3019   0.992       .  S
C3021      C3022   1.396       .  A
C3021      C3026   1.398       .  A
C3022      C3023   1.381       .  A
C3022      H3027   1.082       .  S
C3023      C3024   1.407       .  A
C3024      C3025   1.409       .  A
C3025      C3026   1.392       .  A
C3025      H3029   1.084       .  S
C3026      O3030   1.372       .  S
O3028      H3032   0.992       .  S
O3030      H3031   0.992       .  S
C3033      C3034   1.418       .  A
C3033      C3038   1.424       .  A
C3034      C3035   1.413       .  A
C3034      H3039   1.083       .  S
C3035      C3036   1.407       .  A
C3035      O3040   1.372       .  S
C3036      C3037   1.399       .  A
C3037      C3038   1.406       .  A
C3037      H3041   1.084   1_556  S
C3038      O3042   1.370   1_556  S
O3040      H3044   0.992       .  S
O3042      H3043   0.991       .  S
C3045      C3046   1.401       .  A
C3046      H3051   1.085       .  S
C3047      C3048   1.405   1_455  A
C3048      C3049   1.402       .  A
C3049      C3050   1.388       .  A
C3049      H3053   1.084       .  S
C3050      O3054   1.372       .  S
O3052      H3056   0.992       .  S
O3054      H3055   0.992       .  S
C3057      C3058   1.397       .  A
C3057      C3062   1.415       .  A
C3058      C3059   1.394       .  A
C3058      H3063   1.084       .  S
C3059      C3060   1.407       .  A
C3059      O3064   1.372       .  S
C3060      C3061   1.386       .  A
C3061      C3062   1.378       .  A
C3061      H3065   1.086       .  S
C3062      O3066   1.377       .  S
O3064      H3068   0.992       .  S
O3066      H3067   0.992       .  S
C3069      C3074   1.421       .  A
C3070      C3071   1.418       .  A
C3070      H3075   1.083       .  S
C3071      C3072   1.426       .  A
C3071      O3076   1.372       .  S
C3073      C3074   1.425       .  A
C3073      H3077   1.083       .  S
C3074      O3078   1.371       .  S
O3076      H3080   0.992       .  S
O3078      H3079   0.992       .  S
C3081      C3082   1.411       .  A
C3081      C3086   1.413       .  A
C3082      C3083   1.416       .  A
C3082      H3087   1.084       .  S
C3083      C3084   1.417       .  A
C3083      O3088   1.372       .  S
C3084      C3085   1.419       .  A
C3085      C3086   1.426       .  A
C3085      H3089   1.083       .  S
C3086      O3090   1.370       .  S
O3088      H3092   0.992       .  S
O3090      H3091   0.992       .  S
C3093      C3094   1.391       .  A
C3093      C3098   1.402       .  A
C3094      C3095   1.380       .  A
C3094      H3099   1.086       .  S
C3095      C3096   1.409       .  A
C3095      O3100   1.374       .  S
C3096      C3097   1.399       .  A
C3097      C3098   1.392       .  A
C3097      H3101   1.084       .  S
C3098      O3102   1.372       .  S
O3100      H3104   0.991       .  S
O3102      H3103   0.992       .  S
C3105      C3106   1.402       .  A
C3105      C3110   1.400       .  A
C3106      C3107   1.380       .  A
C3106      H3111   1.085       .  S
C3107      C3108   1.399       .  A
C3107      O3112   1.373       .  S
C3108      C3109   1.406       .  A
C3109      C3110   1.397       .  A
C3109      H3113   1.084       .  S
C3110      O3114   1.371   1_554  S
O3112      H3116   0.992       .  S
O3114      H3115   0.992       .  S
C3117      C3118   1.393       .  A
C3117      C3122   1.415       .  A
C3118      C3119   1.396       .  A
C3118      H3123   1.084       .  S
C3119      C3120   1.425       .  A
C3119      O3124   1.372       .  S
C3120      C3121   1.403       .  A
C3121      C3122   1.407       .  A
C3121      H3125   1.083       .  S
C3122      O3126   1.372       .  S
O3124      H3128   0.992       .  S
O3126      H3127   0.992       .  S
C3129      C3130   1.394       .  A
C3129      C3134   1.406   1_556  A
C3130      C3131   1.388       .  A
C3130      H3135   1.084       .  S
C3131      C3132   1.407   1_556  A
C3131      O3136   1.372       .  S
C3132      C3133   1.389       .  A
C3133      C3134   1.372       .  A
C3133      H3137   1.085       .  S
C3134      O3138   1.371       .  S
O3136      H3140   0.992       .  S
O3138      H3139   0.992       .  S
C3141      C3142   1.411       .  A
C3141      C3146   1.411       .  A
C3142      C3143   1.414       .  A
C3142      H3147   1.083       .  S
C3143      C3144   1.413       .  A
C3143      O3148   1.371       .  S
C3144      C3145   1.412       .  A
C3145      C3146   1.407       .  A
C3145      H3149   1.083       .  S
C3146      O3150   1.372       .  S
O3148      H3152   0.992       .  S
O3150      H3151   0.992       .  S
C3153      C3154   1.408       .  A
C3153      C3158   1.411       .  A
C3154      C3155   1.399       .  A
C3154      H3159   1.083       .  S
C3155      C3156   1.404       .  A
C3155      O3160   1.371       .  S
C3156      C3157   1.399   1_655  A
C3157      C3158   1.385   1_455  A
C3157      H3161   1.085       .  S
C3158      O3162   1.372   1_655  S
O3160      H3164   0.992       .  S
O3162      H3163   0.992       .  S
C3165      C3166   1.415       .  A
C3165      C3170   1.409       .  A
C3166      C3167   1.400       .  A
C3166      H3171   1.083       .  S
C3167      C3168   1.403       .  A
C3167      O3172   1.372       .  S
C3168      C3169   1.413   1_556  A
C3169      C3170   1.411   1_554  A
C3170      O3174   1.371   1_556  S
O3172      H3176   0.992       .  S
C3177      C3178   1.395       .  A
C3177      C3182   1.403       .  A
C3178      C3179   1.377       .  A
C3178      H3183   1.085       .  S
C3179      C3180   1.409       .  A
C3179      O3184   1.373       .  S
C3180      C3181   1.400       .  A
C3181      C3182   1.384       .  A
C3181      H3185   1.084       .  S
C3182      O3186   1.374       .  S
O3184      H3188   0.992       .  S
O3186      H3187   0.992       .  S
C3189      C3190   1.409   1_554  A
C3189      C3194   1.420       .  A
C3190      C3191   1.420       .  A
C3190      H3195   1.083       .  S
C3191      C3192   1.424       .  A
C3191      O3196   1.371       .  S
C3192      C3193   1.414   1_556  A
C3193      C3194   1.425       .  A
C3193      H3197   1.083       .  S
C3194      O3198   1.371       .  S
O3196      H3200   0.992       .  S
O3198      H3199   0.991       .  S
