geometry optimzed in LAMMPS
_audit_creation_date              2020-11-30 
_audit_creation_method            'lammps2cif' 
_symmetry_space_group_name_H-M    'P1' 
_symmetry_Int_Tables_number       1 
_symmetry_cell_setting            triclinic 
loop_ 
_symmetry_equiv_pos_as_xyz 
  x,y,z 
_cell_length_a                    44.13560769890849 
_cell_length_b                    44.142008294722295 
_cell_length_c                    44.13387036659541 
_cell_angle_alpha                 90.03646003829027 
_cell_angle_beta                  90.04358398358421 
_cell_angle_gamma                 90.10328430157126 
loop_ 
_atom_site_label 
_atom_site_type_symbol 
_atom_site_fract_x 
_atom_site_fract_y 
_atom_site_fract_z 
_atom_site_charge 
O1          O  0.49970903  0.04572760  0.27476148    -0.74210
O2          O  0.00098331  0.45481062  0.27560225    -0.75200
O3          O  0.04562619  0.50114898  0.27493362    -0.63810
O4          O  0.45472027  0.99996052  0.27540787    -0.72230
O5          O  0.45432429  0.99948275  0.22503970    -0.71780
O6          O  0.04528405  0.49912040  0.22468876    -0.63030
O7          O  0.99914418  0.45414551  0.22527681    -0.75540
O8          O  0.50006394  0.04504686  0.22439444    -0.74320
Cu9        Cu  0.50025044  0.50039383  0.27694422     1.04560
Cu10       Cu  0.99972091  0.99946428  0.22307922     1.04330
C11         C  0.49987821  0.05961373  0.24941242     0.91980
C12         C  0.00003083  0.44022931  0.25059972     0.91120
C13         C  0.05982909  0.50025086  0.24973408     0.83270
C14         C  0.44028175  0.99961765  0.25031531     0.89540
O15         O  0.47487195  0.20446901  0.24916941    -0.74210
O16         O  0.47476072  0.29538850  0.25030507    -0.75200
O17         O  0.47494144  0.25070948  0.20439918    -0.63810
O18         O  0.47461211  0.24902557  0.29530840    -0.72230
O19         O  0.02494024  0.25068679  0.29558578    -0.71780
O20         O  0.02528884  0.24961328  0.20467825    -0.63030
O21         O  0.02504516  0.29554993  0.25006195    -0.75540
O22         O  0.02509619  0.20459948  0.25044669    -0.74320
Cu23       Cu  0.47303725  0.24990014  0.24980138     1.04560
Cu24       Cu  0.02685460  0.25010650  0.25018613     1.04330
C25         C  0.49999291  0.19011019  0.24973334     0.91980
C26         C  0.49988543  0.30983987  0.25026803     0.91120
C27         C  0.50017716  0.25020926  0.19030349     0.83270
C28         C  0.49971676  0.24983108  0.30970077     0.89540
O29         O  0.24893007  0.47448017  0.29511457    -0.74210
O30         O  0.24943915  0.47527250  0.20418936    -0.75200
O31         O  0.29510512  0.47449601  0.24973430    -0.63810
O32         O  0.20411853  0.47533105  0.24895589    -0.72230
O33         O  0.20491056  0.02564551  0.25081655    -0.71780
O34         O  0.29579231  0.02475172  0.25034946    -0.63030
O35         O  0.25053173  0.02560792  0.20481296    -0.75540
O36         O  0.25097314  0.02478781  0.29575517    -0.74320
Cu37       Cu  0.24942763  0.47312434  0.24951745     1.04560
Cu38       Cu  0.25052671  0.02696030  0.25041517     1.04330
C39         C  0.24997124  0.49947959  0.30969123     0.91980
C40         C  0.24993607  0.50058858  0.19024146     0.91120
C41         C  0.30983916  0.49948111  0.25011750     0.83270
C42         C  0.19026008  0.50066720  0.24981818     0.89540
O43         O  0.22459076  0.04525595  0.49978234    -0.74210
O44         O  0.22498560  0.45422323  0.99992380    -0.75200
O45         O  0.22468089  0.49951321  0.04540200    -0.63810
O46         O  0.22483624  0.99940949  0.45444176    -0.72230
O47         O  0.27510109  0.50029042  0.45457985    -0.71780
O48         O  0.27495260  0.50056396  0.04553331    -0.63030
O49         O  0.27523481  0.45472921  0.50023581    -0.75540
O50         O  0.27482738  0.04564875  0.50002349    -0.74320
Cu51       Cu  0.22299400  0.49956021  0.99989249     1.04560
Cu52       Cu  0.27678831  0.50030879  0.50008723     1.04330
C53         C  0.24963767  0.05986853  0.49991267     0.91980
C54         C  0.25018768  0.44011475  0.50007737     0.91120
C55         C  0.24979312  0.50012970  0.05983366     0.83270
C56         C  0.24999411  0.49977174  0.44013187     0.89540
O57         O  0.50089676  0.22501539  0.04548377    -0.74210
O58         O  0.99867475  0.22480353  0.45457130    -0.75200
O59         O  0.04532740  0.22486440  0.49904051    -0.63810
O60         O  0.45437718  0.22490445  0.00127220    -0.72230
O61         O  0.45457727  0.27519939  0.49855709    -0.71780
O62         O  0.04547027  0.27506158  0.50094261    -0.63030
O63         O  0.50118525  0.27500941  0.45443072    -0.75540
O64         O  0.49890611  0.27520815  0.04534021    -0.74320
Cu65       Cu  0.99984384  0.22314427  0.50007979     1.04560
Cu66       Cu  0.50004689  0.27687904  0.49982730     1.04330
C67         C  0.49993056  0.25015413  0.05982700     0.91980
C68         C  0.99990626  0.24986631  0.44012084     0.91120
C69         C  0.05981512  0.24995018  0.50002476     0.83270
C70         C  0.44025304  0.25007872  0.49988570     0.89540
O71         O  0.24944303  0.20448321  0.02523589    -0.74210
O72         O  0.25091344  0.29536884  0.02514558    -0.75200
O73         O  0.20459909  0.25072761  0.02534637    -0.63810
O74         O  0.29548041  0.24917983  0.02498889    -0.72230
O75         O  0.29529702  0.25052522  0.47473612    -0.71780
O76         O  0.20436456  0.24930060  0.47499133    -0.63030
O77         O  0.24928526  0.29538866  0.47480264    -0.75540
O78         O  0.25004827  0.20449738  0.47486027    -0.74320
Cu79       Cu  0.25010050  0.24993876  0.02694718     1.04560
Cu80       Cu  0.24976089  0.24993055  0.47307505     1.04330
C81         C  0.24972452  0.19031586  0.50005882     0.91980
C82         C  0.25015349  0.30965418  0.49996338     0.91120
C83         C  0.19028053  0.25003692  0.50023127     0.83270
C84         C  0.30980949  0.24991374  0.49981501     0.89540
C85         C  0.35946026  0.25877898  0.47377372    -0.14620
C86         C  0.34330455  0.24992132  0.49976468     0.07530
C87         C  0.35941851  0.24103865  0.02578777    -0.14620
C88         C  0.39108607  0.24083639  0.02569470    -0.14620
C89         C  0.40706984  0.25009306  0.49984698     0.07530
C90         C  0.39114087  0.25919013  0.47395314    -0.14620
H91         H  0.34761697  0.26573009  0.45344195     0.11520
H92         H  0.34759388  0.23402516  0.04610686     0.11520
H93         H  0.40317991  0.23382589  0.04587144     0.11520
H94         H  0.40324117  0.26625347  0.45380202     0.11520
C95         C  0.10951223  0.22312650  0.49427580    -0.14620
C96         C  0.09334720  0.24994250  0.50013273     0.07530
C97         C  0.10950812  0.27677064  0.00610548    -0.14620
C98         C  0.14118192  0.27670339  0.00642500    -0.14620
C99         C  0.15712236  0.24998273  0.50034146     0.07530
C100        C  0.14118919  0.22322736  0.49415399    -0.14620
H101        H  0.09769707  0.20212780  0.48954902     0.11520
H102        H  0.09773270  0.29776831  0.01074138     0.11520
H103        H  0.15331049  0.29754204  0.01114424     0.11520
H104        H  0.15328491  0.20241330  0.48943691     0.11520
C105        C  0.27752637  0.39032556  0.00332777    -0.14620
C106        C  0.25025999  0.40657482  0.50003167     0.07530
C107        C  0.22298756  0.39033625  0.49666763    -0.14620
C108        C  0.22301132  0.35867444  0.49648283    -0.14620
C109        C  0.25021552  0.34280238  0.49994268     0.07530
C110        C  0.27745694  0.35864368  0.00343043    -0.14620
H111        H  0.29887854  0.40215217  0.00598855     0.11520
H112        H  0.20162687  0.40208002  0.49403739     0.11520
H113        H  0.20181198  0.34654484  0.49380934     0.11520
H114        H  0.29863551  0.34655654  0.00609680     0.11520
C115        C  0.27661097  0.10952743  0.00419833    -0.14620
C116        C  0.24956306  0.09340268  0.49997940     0.07530
C117        C  0.22241550  0.10955986  0.49587134    -0.14620
C118        C  0.22250274  0.14124292  0.49577031    -0.14620
C119        C  0.24963023  0.15716966  0.50008341     0.07530
C120        C  0.27658614  0.14118512  0.00439830    -0.14620
H121        H  0.29787426  0.09777534  0.00750105     0.11520
H122        H  0.20115198  0.09773837  0.49255290     0.11520
H123        H  0.20142069  0.15334387  0.49246048     0.11520
H124        H  0.29769349  0.15330549  0.00774611     0.11520
C125        C  0.27468201  0.01149501  0.35885168    -0.14620
C126        C  0.25008974  0.49921326  0.34290634     0.07530
C127        C  0.22547216  0.48709036  0.35886958    -0.14620
C128        C  0.22524513  0.48764402  0.39055095    -0.14620
C129        C  0.25004215  0.49955657  0.40667155     0.07530
C130        C  0.27487502  0.01126567  0.39052851    -0.14620
H131        H  0.29385497  0.02092862  0.34676148     0.11520
H132        H  0.20625360  0.47767884  0.34679931     0.11520
H133        H  0.20587228  0.47839896  0.40244864     0.11520
H134        H  0.29420814  0.02067766  0.40239823     0.11520
C135        C  0.27352967  0.01447578  0.14100438    -0.14620
C136        C  0.24974920  0.50083019  0.15701838     0.07530
C137        C  0.22595822  0.48699540  0.14111089    -0.14620
C138        C  0.22570613  0.48719280  0.10943370    -0.14620
C139        C  0.24975339  0.50039221  0.09326734     0.07530
C140        C  0.27377505  0.01385487  0.10932587    -0.14620
H141        H  0.29212776  0.02510937  0.15303235     0.11520
H142        H  0.20742534  0.47638864  0.15323055     0.11520
H143        H  0.20699597  0.47658102  0.09757316     0.11520
H144        H  0.29251023  0.02427100  0.09737062     0.11520
C145        C  0.01174856  0.27456385  0.39052033    -0.14620
C146        C  0.49983520  0.24981818  0.40666079     0.07530
C147        C  0.48779747  0.22509426  0.39053479    -0.14620
C148        C  0.48731385  0.22531790  0.35885461    -0.14620
C149        C  0.49962376  0.24985304  0.34290579     0.07530
C150        C  0.01202650  0.27436945  0.35885134    -0.14620
H151        H  0.02123991  0.29385845  0.40238464     0.11520
H152        H  0.47838119  0.20579783  0.40241923     0.11520
H153        H  0.47775878  0.20618086  0.34677264     0.11520
H154        H  0.02155432  0.29350036  0.34676952     0.11520
C155        C  0.49371670  0.27692522  0.10955049    -0.14620
C156        C  0.50004233  0.25021482  0.09335705     0.07530
C157        C  0.00649880  0.22353151  0.10953370    -0.14620
C158        C  0.00684834  0.22364003  0.14120550    -0.14620
C159        C  0.50028412  0.25026034  0.15713732     0.07530
C160        C  0.49359511  0.27686028  0.14123128    -0.14620
H161        H  0.48860620  0.29780488  0.09775148     0.11520
H162        H  0.01150565  0.20262163  0.09772594     0.11520
H163        H  0.01195650  0.20291234  0.15329770     0.11520
H164        H  0.48849553  0.29758423  0.15334925     0.11520
C165        C  0.10943833  0.48852829  0.22497352    -0.14620
C166        C  0.09328710  0.50057213  0.24961546     0.07530
C167        C  0.10939908  0.01287844  0.27422518    -0.14620
C168        C  0.14107325  0.01345550  0.27401754    -0.14620
C169        C  0.15704842  0.50098048  0.24961277     0.07530
C170        C  0.14111723  0.48833710  0.22519366    -0.14620
H171        H  0.09757705  0.47881327  0.20578972     0.11520
H172        H  0.09749943  0.02238685  0.29345250     0.11520
H173        H  0.15312862  0.02314116  0.29310577     0.11520
H174        H  0.15322148  0.47863217  0.20618150     0.11520
C175        C  0.39116588  0.47370349  0.24078777    -0.14620
C176        C  0.40709835  0.49942457  0.25049403     0.07530
C177        C  0.39116749  0.02506299  0.26016084    -0.14620
C178        C  0.35950491  0.02514294  0.25977701    -0.14620
C179        C  0.34333142  0.49930841  0.25035099     0.07530
C180        C  0.35947238  0.47349662  0.24105044    -0.14620
H181        H  0.40327494  0.45373042  0.23328988     0.11520
H182        H  0.40325250  0.04511631  0.26761262     0.11520
H183        H  0.34767559  0.04531741  0.26714731     0.11520
H184        H  0.34760795  0.45333327  0.23358517     0.11520
C185        C  0.47505790  0.39109756  0.23902372    -0.14620
C186        C  0.99986995  0.40703026  0.25087602     0.07530
C187        C  0.02466747  0.39107257  0.26256204    -0.14620
C188        C  0.02485540  0.35940061  0.26199463    -0.14620
C189        C  0.49985694  0.34328804  0.25050059     0.07530
C190        C  0.47484567  0.35942590  0.23923199    -0.14620
H191        H  0.45574332  0.40319351  0.22993386     0.11520
H192        H  0.04404461  0.40314034  0.27164816     0.11520
H193        H  0.04436242  0.34750198  0.27090448     0.11520
H194        H  0.45535561  0.34755612  0.23014553     0.11520
C195        C  0.47249299  0.10865515  0.24941835    -0.14620
C196        C  0.49990752  0.09276613  0.24911190     0.07530
C197        C  0.02736146  0.10869719  0.24905016    -0.14620
C198        C  0.02743229  0.14037433  0.24926371    -0.14620
C199        C  0.49998476  0.15655523  0.24952975     0.07530
C200        C  0.47250228  0.14032791  0.24958750    -0.14620
H201        H  0.45112656  0.09653153  0.24958480     0.11520
H202        H  0.04870140  0.09660102  0.24892616     0.11520
H203        H  0.04896484  0.15216771  0.24922241     0.11520
H204        H  0.45099054  0.15208373  0.24983214     0.11520
O205        O  0.49970926  0.04572776  0.77476145    -0.74210
O206        O  0.00098348  0.45481081  0.77560218    -0.75200
O207        O  0.04562654  0.50114910  0.77493333    -0.63810
O208        O  0.45472049  0.99996078  0.77540787    -0.72230
O209        O  0.45432396  0.99948297  0.72503970    -0.71780
O210        O  0.04528345  0.49912053  0.72468846    -0.63030
O211        O  0.99914380  0.45414572  0.72527676    -0.75540
O212        O  0.50006358  0.04504706  0.72439440    -0.74320
Cu213      Cu  0.50025068  0.50039403  0.77694414     1.04560
Cu214      Cu  0.99972048  0.99946448  0.72307914     1.04330
C215        C  0.49987815  0.05961391  0.74941240     0.91980
C216        C  0.00003074  0.44022950  0.75059966     0.91120
C217        C  0.05982894  0.50025084  0.74973350     0.83270
C218        C  0.44028171  0.99961792  0.75031545     0.89540
O219        O  0.47487195  0.20446908  0.74916703    -0.74210
O220        O  0.47476069  0.29538858  0.75030204    -0.75200
O221        O  0.47494522  0.25070893  0.70439608    -0.63810
O222        O  0.47460794  0.24902571  0.79530532    -0.72230
O223        O  0.02493598  0.25068687  0.79558939    -0.71780
O224        O  0.02529253  0.24961277  0.70468109    -0.63030
O225        O  0.02504511  0.29554993  0.75006450    -0.75540
O226        O  0.02509602  0.20459954  0.75044982    -0.74320
Cu227      Cu  0.47303719  0.24990016  0.74979836     1.04560
Cu228      Cu  0.02685443  0.25010649  0.75018927     1.04330
C229        C  0.49999284  0.19011027  0.74973375     0.91980
C230        C  0.49988542  0.30983995  0.75026774     0.91120
C231        C  0.50018255  0.25020824  0.69030329     0.83270
C232        C  0.49971063  0.24983062  0.80970110     0.89540
O233        O  0.24892048  0.47446421  0.79510406    -0.74210
O234        O  0.24944829  0.47528843  0.70417924    -0.75200
O235        O  0.29510491  0.47449586  0.74973150    -0.63810
O236        O  0.20411842  0.47533150  0.74893888    -0.72230
O237        O  0.20491052  0.02564520  0.75082010    -0.71780
O238        O  0.29579217  0.02475132  0.75036411    -0.63030
O239        O  0.25053973  0.02562366  0.70482256    -0.75540
O240        O  0.25096528  0.02477151  0.79576448    -0.74320
Cu241      Cu  0.24942742  0.47312439  0.74950677     1.04560
Cu242      Cu  0.25052669  0.02695999  0.75042501     1.04330
C243        C  0.24995796  0.49945800  0.80969061     0.91980
C244        C  0.24994942  0.50060993  0.69024128     0.91120
C245        C  0.30983903  0.49948080  0.75012366     0.83270
C246        C  0.19025997  0.50066733  0.74981122     0.89540
O247        O  0.22450563  0.04513929  0.99978277    -0.74210
O248        O  0.22500097  0.45433836  0.49992468    -0.75200
O249        O  0.22472883  0.49962802  0.54540011    -0.63810
O250        O  0.22478870  0.99929531  0.95443968    -0.72230
O251        O  0.27505300  0.50020580  0.95458193    -0.71780
O252        O  0.27500109  0.50065157  0.54553508    -0.63030
O253        O  0.27521921  0.45463883  0.00023418    -0.75540
O254        O  0.27474213  0.04555938  0.00002592    -0.74320
Cu255      Cu  0.22304322  0.49967799  0.49989266     1.04560
Cu256      Cu  0.27673871  0.50022145  0.00008747     1.04330
C257        C  0.24954435  0.05976539  0.99991561     0.91980
C258        C  0.25017933  0.44001194  0.00007490     0.91120
C259        C  0.24984011  0.50022508  0.55983355     0.83270
C260        C  0.24994774  0.49967799  0.94013177     0.89540
O261        O  0.50094206  0.22501865  0.54548257    -0.74210
O262        O  0.99862620  0.22479902  0.95457153    -0.75200
O263        O  0.04527407  0.22487221  0.99903963    -0.63810
O264        O  0.45442246  0.22492822  0.50126903    -0.72230
O265        O  0.45451028  0.27517559  0.99856058    -0.71780
O266        O  0.04541161  0.27506947  0.00094159    -0.63030
O267        O  0.50112269  0.27500558  0.95443205    -0.75540
O268        O  0.49896495  0.27521197  0.54533984    -0.74320
Cu269      Cu  0.99979579  0.22313911  0.00008075     1.04560
Cu270      Cu  0.49998377  0.27687391  0.99982829     1.04330
C271        C  0.49997854  0.25015712  0.55982626     0.91980
C272        C  0.99985444  0.24986242  0.94012160     0.91120
C273        C  0.05975899  0.24995903  0.00002284     0.83270
C274        C  0.44019672  0.25004805  0.99989022     0.89540
O275        O  0.24954283  0.20458234  0.52523145    -0.74210
O276        O  0.25092575  0.29546909  0.52514953    -0.75200
O277        O  0.20465525  0.25078217  0.52534528    -0.63810
O278        O  0.29553663  0.24931777  0.52499013    -0.72230
O279        O  0.29523864  0.25038084  0.97473476    -0.71780
O280        O  0.20430655  0.24924227  0.97499251    -0.63030
O281        O  0.24927220  0.29528436  0.97479864    -0.75540
O282        O  0.24994367  0.20439201  0.97486479    -0.74320
Cu283      Cu  0.25015670  0.25003759  0.52694707     1.04560
Cu284      Cu  0.24970236  0.24982628  0.97307519     1.04330
C285        C  0.24960964  0.19021339  0.00006493     0.91980
C286        C  0.25015368  0.30955171  0.99995789     0.91120
C287        C  0.19022353  0.24999514  0.00023240     0.83270
C288        C  0.30975226  0.24977040  0.99981299     0.89540
C289        C  0.35939686  0.25866388  0.97377092    -0.14620
C290        C  0.34324753  0.24979111  0.99976093     0.07530
C291        C  0.35946896  0.24114719  0.52578844    -0.14620
C292        C  0.39113595  0.24090628  0.52569076    -0.14620
C293        C  0.40701314  0.25004141  0.99985279     0.07530
C294        C  0.39107703  0.25911357  0.97395481    -0.14620
H295        H  0.34754847  0.26560070  0.95343723     0.11520
H296        H  0.34763919  0.23414292  0.54610771     0.11520
H297        H  0.40322429  0.23388126  0.54586572     0.11520
H298        H  0.40317171  0.26618635  0.95380365     0.11520
C299        C  0.10944634  0.22312561  0.99427088    -0.14620
C300        C  0.09329077  0.24994716  0.00012832     0.07530
C301        C  0.10955541  0.27677181  0.50610875    -0.14620
C302        C  0.14122829  0.27671739  0.50642585    -0.14620
C303        C  0.15706553  0.24996146  0.00034165     0.07530
C304        C  0.14112213  0.22321366  0.99415142    -0.14620
H305        H  0.09762450  0.20213093  0.98954282     0.11520
H306        H  0.09777338  0.29776575  0.51074465     0.11520
H307        H  0.15334837  0.29756133  0.51114374     0.11520
H308        H  0.15320938  0.20239459  0.98943441     0.11520
C309        C  0.27752089  0.39042553  0.50333479    -0.14620
C310        C  0.25026316  0.40647189  0.00002536     0.07530
C311        C  0.22299319  0.39023023  0.99665908    -0.14620
C312        C  0.22301963  0.35856974  0.99647330    -0.14620
C313        C  0.25022390  0.34269958  0.99993399     0.07530
C314        C  0.27744880  0.35874489  0.50343835    -0.14620
H315        H  0.29887488  0.40224907  0.50599438     0.11520
H316        H  0.20163078  0.40197079  0.99402878     0.11520
H317        H  0.20182090  0.34643906  0.99379949     0.11520
H318        H  0.29862697  0.34665681  0.50610384     0.11520
C319        C  0.27672692  0.10962503  0.50416771    -0.14620
C320        C  0.24945470  0.09329939  0.99998722     0.07530
C321        C  0.22230596  0.10945077  0.99586042    -0.14620
C322        C  0.22238726  0.14113520  0.99575964    -0.14620
C323        C  0.24950958  0.15706668  0.00009393     0.07530
C324        C  0.27670850  0.14128392  0.50436581    -0.14620
H325        H  0.29798983  0.09786781  0.50745454     0.11520
H326        H  0.20104802  0.09762391  0.99252493     0.11520
H327        H  0.20130600  0.15323282  0.99243287     0.11520
H328        H  0.29782017  0.15340121  0.50769732     0.11520
C329        C  0.27464907  0.01145835  0.85886439    -0.14620
C330        C  0.25006502  0.49917808  0.84290571     0.07530
C331        C  0.22544645  0.48703914  0.85885577    -0.14620
C332        C  0.22521130  0.48757322  0.89053761    -0.14620
C333        C  0.25000149  0.49948193  0.90667122     0.07530
C334        C  0.27483420  0.01120959  0.89054089    -0.14620
H335        H  0.29382258  0.02090444  0.84678476     0.11520
H336        H  0.20623384  0.47762893  0.84677503     0.11520
H337        H  0.20583817  0.47831567  0.90242514     0.11520
H338        H  0.29416174  0.02062046  0.90242061     0.11520
C339        C  0.27356337  0.01451404  0.64101859    -0.14620
C340        C  0.24977477  0.50086530  0.65701832     0.07530
C341        C  0.22598552  0.48704455  0.64109658    -0.14620
C342        C  0.22574164  0.48726190  0.60941968    -0.14620
C343        C  0.24979516  0.50046743  0.59326721     0.07530
C344        C  0.27381684  0.01391279  0.60933958    -0.14620
H345        H  0.29216056  0.02513630  0.65305791     0.11520
H346        H  0.20744694  0.47643483  0.65320497     0.11520
H347        H  0.20703211  0.47666134  0.59754807     0.11520
H348        H  0.29255745  0.02433147  0.59739506     0.11520
C349        C  0.01171611  0.27456087  0.89052594    -0.14620
C350        C  0.49979590  0.24981506  0.90666149     0.07530
C351        C  0.48776716  0.22509029  0.89053050    -0.14620
C352        C  0.48729694  0.22531401  0.85885017    -0.14620
C353        C  0.49961184  0.24984991  0.84290625     0.07530
C354        C  0.01200767  0.27436649  0.85885691    -0.14620
H355        H  0.02120200  0.29385565  0.90239432     0.11520
H356        H  0.47834697  0.20579337  0.90241105     0.11520
H357        H  0.47774691  0.20617693  0.84676429     0.11520
H358        H  0.02153915  0.29349807  0.84677904     0.11520
C359        C  0.49374565  0.27692566  0.60954861    -0.14620
C360        C  0.50007783  0.25021612  0.59335643     0.07530
C361        C  0.00652549  0.22353145  0.60953444    -0.14620
C362        C  0.00686263  0.22363853  0.64120646    -0.14620
C363        C  0.50029419  0.25025865  0.65713697     0.07530
C364        C  0.49361150  0.27685928  0.64122939    -0.14620
H365        H  0.48864027  0.29780594  0.59774848     0.11520
H366        H  0.01153592  0.20262188  0.59772768     0.11520
H367        H  0.01196607  0.20291031  0.65329974     0.11520
H368        H  0.48850872  0.29758309  0.65334623     0.11520
C369        C  0.10943689  0.48852718  0.72497139    -0.14620
C370        C  0.09328691  0.50057167  0.74961383     0.07530
C371        C  0.10940006  0.01287865  0.77422240    -0.14620
C372        C  0.14107424  0.01345612  0.77401279    -0.14620
C373        C  0.15704824  0.50098070  0.74960729     0.07530
C374        C  0.14111574  0.48833619  0.72518969    -0.14620
H375        H  0.09757462  0.47881159  0.70578849     0.11520
H376        H  0.09750137  0.02238742  0.79345014     0.11520
H377        H  0.15313058  0.02314227  0.79310018     0.11520
H378        H  0.15321892  0.47863073  0.70617713     0.11520
C379        C  0.39116555  0.47370420  0.74078821    -0.14620
C380        C  0.40709835  0.49942499  0.75049464     0.07530
C381        C  0.39116784  0.02506297  0.76016312    -0.14620
C382        C  0.35950526  0.02514257  0.75978151    -0.14620
C383        C  0.34333137  0.49930811  0.75035599     0.07530
C384        C  0.35947207  0.47349700  0.74105287    -0.14620
H385        H  0.40327434  0.45373149  0.73328889     0.11520
H386        H  0.40325313  0.04511616  0.76761479     0.11520
H387        H  0.34767634  0.04531683  0.76715300     0.11520
H388        H  0.34760747  0.45333386  0.73358736     0.11520
C389        C  0.47505792  0.39109775  0.73902351    -0.14620
C390        C  0.99986989  0.40703045  0.75087594     0.07530
C391        C  0.02466738  0.39107274  0.76256199    -0.14620
C392        C  0.02485534  0.35940077  0.76199450    -0.14620
C393        C  0.49985696  0.34328818  0.75050029     0.07530
C394        C  0.47484574  0.35942609  0.73923163    -0.14620
H395        H  0.45574335  0.40319371  0.72993363     0.11520
H396        H  0.04404449  0.40314051  0.77164820     0.11520
H397        H  0.04436235  0.34750218  0.77090441     0.11520
H398        H  0.45535570  0.34755637  0.73014506     0.11520
C399        C  0.47249294  0.10865529  0.74941840    -0.14620
C400        C  0.49990747  0.09276628  0.74911195     0.07530
C401        C  0.02736140  0.10869734  0.74905041    -0.14620
C402        C  0.02743222  0.14037447  0.74926417    -0.14620
C403        C  0.49998471  0.15655534  0.74953016     0.07530
C404        C  0.47250222  0.14032805  0.74958770    -0.14620
H405        H  0.45112650  0.09653168  0.74958475     0.11520
H406        H  0.04870133  0.09660116  0.74892642     0.11520
H407        H  0.04896477  0.15216786  0.74922295     0.11520
H408        H  0.45099049  0.15208387  0.74983236     0.11520
O409        O  0.49970901  0.54572760  0.27476148    -0.74210
O410        O  0.00098330  0.95481062  0.27560225    -0.75200
O411        O  0.04562620  0.00114896  0.27493362    -0.63810
O412        O  0.45472026  0.49996051  0.27540787    -0.72230
O413        O  0.45432428  0.49948274  0.22503970    -0.71780
O414        O  0.04528405  0.99912040  0.22468876    -0.63030
O415        O  0.99914419  0.95414552  0.22527681    -0.75540
O416        O  0.50006393  0.54504685  0.22439444    -0.74320
Cu417      Cu  0.50025044  0.00039383  0.27694422     1.04560
Cu418      Cu  0.99972090  0.49946428  0.22307922     1.04330
C419        C  0.49987820  0.55961373  0.24941242     0.91980
C420        C  0.00003083  0.94022931  0.25059972     0.91120
C421        C  0.05982909  0.00025085  0.24973408     0.83270
C422        C  0.44028175  0.49961764  0.25031531     0.89540
O423        O  0.47487193  0.70446901  0.24916941    -0.74210
O424        O  0.47476070  0.79538851  0.25030507    -0.75200
O425        O  0.47494143  0.75070948  0.20439918    -0.63810
O426        O  0.47461209  0.74902557  0.29530840    -0.72230
O427        O  0.02494022  0.75068678  0.29558578    -0.71780
O428        O  0.02528882  0.74961328  0.20467825    -0.63030
O429        O  0.02504514  0.79554993  0.25006195    -0.75540
O430        O  0.02509616  0.70459948  0.25044669    -0.74320
Cu431      Cu  0.47303723  0.74990014  0.24980137     1.04560
Cu432      Cu  0.02685458  0.75010649  0.25018612     1.04330
C433        C  0.49999289  0.69011019  0.24973333     0.91980
C434        C  0.49988541  0.80983987  0.25026803     0.91120
C435        C  0.50017714  0.75020926  0.19030349     0.83270
C436        C  0.49971673  0.74983108  0.30970077     0.89540
O437        O  0.24893008  0.97448018  0.29511457    -0.74210
O438        O  0.24943916  0.97527250  0.20418936    -0.75200
O439        O  0.29510513  0.97449601  0.24973431    -0.63810
O440        O  0.20411854  0.97533105  0.24895589    -0.72230
O441        O  0.20491055  0.52564551  0.25081656    -0.71780
O442        O  0.29579231  0.52475172  0.25034946    -0.63030
O443        O  0.25053172  0.52560792  0.20481296    -0.75540
O444        O  0.25097313  0.52478780  0.29575517    -0.74320
Cu445      Cu  0.24942764  0.97312434  0.24951745     1.04560
Cu446      Cu  0.25052671  0.52696030  0.25041517     1.04330
C447        C  0.24997124  0.99947960  0.30969123     0.91980
C448        C  0.24993609  0.00058858  0.19024146     0.91120
C449        C  0.30983916  0.99948112  0.25011751     0.83270
C450        C  0.19026008  0.00066720  0.24981817     0.89540
O451        O  0.22459075  0.54525595  0.49978234    -0.74210
O452        O  0.22498562  0.95422323  0.99992380    -0.75200
O453        O  0.22468091  0.99951320  0.04540200    -0.63810
O454        O  0.22483624  0.49940949  0.45444176    -0.72230
O455        O  0.27510109  0.00029042  0.45457985    -0.71780
O456        O  0.27495262  0.00056396  0.04553331    -0.63030
O457        O  0.27523481  0.95472921  0.50023581    -0.75540
O458        O  0.27482737  0.54564875  0.50002348    -0.74320
Cu459      Cu  0.22299402  0.99956020  0.99989249     1.04560
Cu460      Cu  0.27678832  0.00030879  0.50008723     1.04330
C461        C  0.24963767  0.55986853  0.49991267     0.91980
C462        C  0.25018769  0.94011475  0.50007737     0.91120
C463        C  0.24979314  0.00012970  0.05983366     0.83270
C464        C  0.24999412  0.99977175  0.44013187     0.89540
O465        O  0.50089676  0.72501539  0.04548377    -0.74210
O466        O  0.99867474  0.72480354  0.45457130    -0.75200
O467        O  0.04532739  0.72486441  0.49904051    -0.63810
O468        O  0.45437718  0.72490446  0.00127220    -0.72230
O469        O  0.45457726  0.77519939  0.49855709    -0.71780
O470        O  0.04547027  0.77506159  0.50094261    -0.63030
O471        O  0.50118524  0.77500941  0.45443071    -0.75540
O472        O  0.49890611  0.77520815  0.04534021    -0.74320
Cu473      Cu  0.99984384  0.72314428  0.50007979     1.04560
Cu474      Cu  0.50004688  0.77687904  0.49982730     1.04330
C475        C  0.49993056  0.75015414  0.05982700     0.91980
C476        C  0.99990626  0.74986631  0.44012084     0.91120
C477        C  0.05981512  0.74995019  0.50002476     0.83270
C478        C  0.44025304  0.75007872  0.49988570     0.89540
O479        O  0.24944303  0.70448320  0.02523589    -0.74210
O480        O  0.25091345  0.79536884  0.02514559    -0.75200
O481        O  0.20459910  0.75072761  0.02534638    -0.63810
O482        O  0.29548041  0.74917983  0.02498889    -0.72230
O483        O  0.29529701  0.75052522  0.47473612    -0.71780
O484        O  0.20436456  0.74930061  0.47499133    -0.63030
O485        O  0.24928526  0.79538866  0.47480264    -0.75540
O486        O  0.25004826  0.70449738  0.47486027    -0.74320
Cu487      Cu  0.25010051  0.74993876  0.02694719     1.04560
Cu488      Cu  0.24976089  0.74993055  0.47307505     1.04330
C489        C  0.24972452  0.69031586  0.50005882     0.91980
C490        C  0.25015349  0.80965418  0.49996338     0.91120
C491        C  0.19028052  0.75003692  0.50023127     0.83270
C492        C  0.30980949  0.74991373  0.49981501     0.89540
C493        C  0.35946025  0.75877897  0.47377372    -0.14620
C494        C  0.34330455  0.74992131  0.49976468     0.07530
C495        C  0.35941852  0.74103861  0.02578775    -0.14620
C496        C  0.39108607  0.74083635  0.02569468    -0.14620
C497        C  0.40706983  0.75009305  0.49984698     0.07530
C498        C  0.39114087  0.75919013  0.47395314    -0.14620
H499        H  0.34761697  0.76573008  0.45344195     0.11520
H500        H  0.34759388  0.73402508  0.04610683     0.11520
H501        H  0.40317991  0.73382582  0.04587141     0.11520
H502        H  0.40324116  0.76625346  0.45380203     0.11520
C503        C  0.10951223  0.72312652  0.49427578    -0.14620
C504        C  0.09334719  0.74994251  0.50013273     0.07530
C505        C  0.10950812  0.77677064  0.00610549    -0.14620
C506        C  0.14118192  0.77670339  0.00642501    -0.14620
C507        C  0.15712236  0.74998274  0.50034146     0.07530
C508        C  0.14118918  0.72322737  0.49415398    -0.14620
H509        H  0.09769707  0.70212781  0.48954899     0.11520
H510        H  0.09773271  0.79776831  0.01074139     0.11520
H511        H  0.15331050  0.79754204  0.01114425     0.11520
H512        H  0.15328490  0.70241331  0.48943689     0.11520
C513        C  0.27752639  0.89032556  0.00332777    -0.14620
C514        C  0.25026000  0.90657482  0.50003167     0.07530
C515        C  0.22298756  0.89033625  0.49666762    -0.14620
C516        C  0.22301132  0.85867444  0.49648282    -0.14620
C517        C  0.25021553  0.84280238  0.49994268     0.07530
C518        C  0.27745695  0.85864368  0.00343044    -0.14620
H519        H  0.29887855  0.90215217  0.00598855     0.11520
H520        H  0.20162688  0.90208002  0.49403739     0.11520
H521        H  0.20181199  0.84654484  0.49380933     0.11520
H522        H  0.29863552  0.84655654  0.00609681     0.11520
C523        C  0.27661097  0.60952743  0.00419833    -0.14620
C524        C  0.24956305  0.59340268  0.49997940     0.07530
C525        C  0.22241549  0.60955985  0.49587134    -0.14620
C526        C  0.22250274  0.64124292  0.49577031    -0.14620
C527        C  0.24963022  0.65716966  0.50008341     0.07530
C528        C  0.27658614  0.64118512  0.00439829    -0.14620
H529        H  0.29787425  0.59777534  0.00750105     0.11520
H530        H  0.20115197  0.59773837  0.49255290     0.11520
H531        H  0.20142069  0.65334387  0.49246048     0.11520
H532        H  0.29769350  0.65330548  0.00774610     0.11520
C533        C  0.27468202  0.51149497  0.35885168    -0.14620
C534        C  0.25008974  0.99921327  0.34290634     0.07530
C535        C  0.22547218  0.98709034  0.35886958    -0.14620
C536        C  0.22524514  0.98764401  0.39055094    -0.14620
C537        C  0.25004215  0.99955658  0.40667154     0.07530
C538        C  0.27487503  0.51126563  0.39052851    -0.14620
H539        H  0.29385499  0.52092855  0.34676148     0.11520
H540        H  0.20625363  0.97767880  0.34679931     0.11520
H541        H  0.20587231  0.97839892  0.40244864     0.11520
H542        H  0.29420816  0.52067760  0.40239823     0.11520
C543        C  0.27352967  0.51447575  0.14100438    -0.14620
C544        C  0.24974922  0.00083019  0.15701838     0.07530
C545        C  0.22595826  0.98699536  0.14111088    -0.14620
C546        C  0.22570617  0.98719275  0.10943370    -0.14620
C547        C  0.24975342  0.00039220  0.09326733     0.07530
C548        C  0.27377505  0.51385483  0.10932587    -0.14620
H549        H  0.29212778  0.52510931  0.15303235     0.11520
H550        H  0.20742540  0.97638857  0.15323054     0.11520
H551        H  0.20699602  0.97658095  0.09757316     0.11520
H552        H  0.29251025  0.52427094  0.09737062     0.11520
C553        C  0.01174854  0.77456385  0.39052032    -0.14620
C554        C  0.49983519  0.74981818  0.40666079     0.07530
C555        C  0.48779746  0.72509425  0.39053479    -0.14620
C556        C  0.48731384  0.72531789  0.35885461    -0.14620
C557        C  0.49962374  0.74985304  0.34290579     0.07530
C558        C  0.01202648  0.77436945  0.35885134    -0.14620
H559        H  0.02123990  0.79385846  0.40238463     0.11520
H560        H  0.47838118  0.70579782  0.40241923     0.11520
H561        H  0.47775877  0.70618085  0.34677264     0.11520
H562        H  0.02155430  0.79350036  0.34676952     0.11520
C563        C  0.49371668  0.77692523  0.10955048    -0.14620
C564        C  0.50004232  0.75021483  0.09335705     0.07530
C565        C  0.00649879  0.72353152  0.10953369    -0.14620
C566        C  0.00684833  0.72364003  0.14120550    -0.14620
C567        C  0.50028410  0.75026034  0.15713732     0.07530
C568        C  0.49359509  0.77686028  0.14123127    -0.14620
H569        H  0.48860618  0.79780489  0.09775147     0.11520
H570        H  0.01150564  0.70262164  0.09772594     0.11520
H571        H  0.01195649  0.70291234  0.15329770     0.11520
H572        H  0.48849550  0.79758423  0.15334925     0.11520
C573        C  0.10943834  0.98852833  0.22497349    -0.14620
C574        C  0.09328711  0.00057212  0.24961546     0.07530
C575        C  0.10939907  0.51287850  0.27422516    -0.14620
C576        C  0.14107324  0.51345556  0.27401751    -0.14620
C577        C  0.15704843  0.00098047  0.24961276     0.07530
C578        C  0.14111724  0.98833715  0.22519363    -0.14620
H579        H  0.09757706  0.97881336  0.20578967     0.11520
H580        H  0.09749941  0.52238695  0.29345246     0.11520
H581        H  0.15312861  0.52314126  0.29310572     0.11520
H582        H  0.15322149  0.97863226  0.20618145     0.11520
C583        C  0.39116589  0.97370351  0.24078776    -0.14620
C584        C  0.40709836  0.99942458  0.25049403     0.07530
C585        C  0.39116748  0.52506299  0.26016083    -0.14620
C586        C  0.35950490  0.52514294  0.25977700    -0.14620
C587        C  0.34333142  0.99930842  0.25035099     0.07530
C588        C  0.35947238  0.97349663  0.24105043    -0.14620
H589        H  0.40327495  0.95373044  0.23328985     0.11520
H590        H  0.40325250  0.54511631  0.26761260     0.11520
H591        H  0.34767558  0.54531741  0.26714728     0.11520
H592        H  0.34760796  0.95333329  0.23358515     0.11520
C593        C  0.47505789  0.89109756  0.23902372    -0.14620
C594        C  0.99986994  0.90703026  0.25087602     0.07530
C595        C  0.02466746  0.89107257  0.26256202    -0.14620
C596        C  0.02485539  0.85940060  0.26199462    -0.14620
C597        C  0.49985692  0.84328804  0.25050060     0.07530
C598        C  0.47484566  0.85942590  0.23923199    -0.14620
H599        H  0.45574331  0.90319351  0.22993386     0.11520
H600        H  0.04404462  0.90314034  0.27164814     0.11520
H601        H  0.04436241  0.84750198  0.27090446     0.11520
H602        H  0.45535560  0.84755613  0.23014553     0.11520
C603        C  0.47249297  0.60865514  0.24941834    -0.14620
C604        C  0.49990750  0.59276612  0.24911190     0.07530
C605        C  0.02736144  0.60869719  0.24905016    -0.14620
C606        C  0.02743227  0.64037433  0.24926371    -0.14620
C607        C  0.49998474  0.65655523  0.24952974     0.07530
C608        C  0.47250225  0.64032791  0.24958749    -0.14620
H609        H  0.45112654  0.59653152  0.24958480     0.11520
H610        H  0.04870138  0.59660102  0.24892616     0.11520
H611        H  0.04896481  0.65216772  0.24922240     0.11520
H612        H  0.45099052  0.65208373  0.24983214     0.11520
O613        O  0.49970927  0.54572776  0.77476145    -0.74210
O614        O  0.00098348  0.95481081  0.77560218    -0.75200
O615        O  0.04562653  0.00114911  0.77493332    -0.63810
O616        O  0.45472049  0.49996078  0.77540787    -0.72230
O617        O  0.45432397  0.49948298  0.72503970    -0.71780
O618        O  0.04528344  0.99912053  0.72468846    -0.63030
O619        O  0.99914379  0.95414572  0.72527676    -0.75540
O620        O  0.50006359  0.54504706  0.72439440    -0.74320
Cu621      Cu  0.50025067  0.00039403  0.77694414     1.04560
Cu622      Cu  0.99972049  0.49946448  0.72307914     1.04330
C623        C  0.49987816  0.55961391  0.74941240     0.91980
C624        C  0.00003074  0.94022950  0.75059967     0.91120
C625        C  0.05982893  0.00025085  0.74973350     0.83270
C626        C  0.44028172  0.49961792  0.75031545     0.89540
O627        O  0.47487195  0.70446908  0.74916703    -0.74210
O628        O  0.47476069  0.79538858  0.75030204    -0.75200
O629        O  0.47494522  0.75070893  0.70439607    -0.63810
O630        O  0.47460794  0.74902571  0.79530532    -0.72230
O631        O  0.02493599  0.75068687  0.79558939    -0.71780
O632        O  0.02529254  0.74961278  0.70468109    -0.63030
O633        O  0.02504512  0.79554994  0.75006450    -0.75540
O634        O  0.02509603  0.70459954  0.75044982    -0.74320
Cu635      Cu  0.47303719  0.74990016  0.74979836     1.04560
Cu636      Cu  0.02685444  0.75010649  0.75018927     1.04330
C637        C  0.49999285  0.69011027  0.74973375     0.91980
C638        C  0.49988542  0.80983995  0.75026774     0.91120
C639        C  0.50018255  0.75020825  0.69030329     0.83270
C640        C  0.49971063  0.74983061  0.80970109     0.89540
O641        O  0.24892047  0.97446422  0.79510406    -0.74210
O642        O  0.24944828  0.97528844  0.70417924    -0.75200
O643        O  0.29510490  0.97449586  0.74973150    -0.63810
O644        O  0.20411841  0.97533152  0.74893887    -0.72230
O645        O  0.20491053  0.52564519  0.75082010    -0.71780
O646        O  0.29579218  0.52475132  0.75036411    -0.63030
O647        O  0.25053973  0.52562365  0.70482256    -0.75540
O648        O  0.25096529  0.52477151  0.79576448    -0.74320
Cu649      Cu  0.24942741  0.97312439  0.74950677     1.04560
Cu650      Cu  0.25052669  0.52695998  0.75042501     1.04330
C651        C  0.24995796  0.99945801  0.80969061     0.91980
C652        C  0.24994941  0.00060994  0.69024128     0.91120
C653        C  0.30983902  0.99948080  0.75012366     0.83270
C654        C  0.19025997  0.00066735  0.74981122     0.89540
O655        O  0.22450562  0.54513929  0.99978276    -0.74210
O656        O  0.22500098  0.95433837  0.49992468    -0.75200
O657        O  0.22472883  0.99962802  0.54540011    -0.63810
O658        O  0.22478869  0.49929531  0.95443968    -0.72230
O659        O  0.27505301  0.00020579  0.95458192    -0.71780
O660        O  0.27500110  0.00065156  0.54553508    -0.63030
O661        O  0.27521923  0.95463883  0.00023418    -0.75540
O662        O  0.27474212  0.54555938  0.00002592    -0.74320
Cu663      Cu  0.22304323  0.99967800  0.49989266     1.04560
Cu664      Cu  0.27673872  0.00022146  0.00008747     1.04330
C665        C  0.24954434  0.55976539  0.99991561     0.91980
C666        C  0.25017934  0.94001194  0.00007490     0.91120
C667        C  0.24984012  0.00022508  0.55983355     0.83270
C668        C  0.24994775  0.99967799  0.94013177     0.89540
O669        O  0.50094206  0.72501866  0.54548257    -0.74210
O670        O  0.99862620  0.72479902  0.95457153    -0.75200
O671        O  0.04527407  0.72487221  0.99903964    -0.63810
O672        O  0.45442246  0.72492822  0.50126904    -0.72230
O673        O  0.45451028  0.77517560  0.99856057    -0.71780
O674        O  0.04541162  0.77506947  0.00094160    -0.63030
O675        O  0.50112270  0.77500558  0.95443204    -0.75540
O676        O  0.49896494  0.77521198  0.54533983    -0.74320
Cu677      Cu  0.99979579  0.72313911  0.00008075     1.04560
Cu678      Cu  0.49998378  0.77687391  0.99982828     1.04330
C679        C  0.49997854  0.75015713  0.55982626     0.91980
C680        C  0.99985445  0.74986242  0.94012160     0.91120
C681        C  0.05975900  0.74995903  0.00002285     0.83270
C682        C  0.44019673  0.75004806  0.99989021     0.89540
O683        O  0.24954283  0.70458234  0.52523145    -0.74210
O684        O  0.25092575  0.79546909  0.52514953    -0.75200
O685        O  0.20465525  0.75078218  0.52534528    -0.63810
O686        O  0.29553663  0.74931776  0.52499013    -0.72230
O687        O  0.29523864  0.75038085  0.97473476    -0.71780
O688        O  0.20430655  0.74924227  0.97499252    -0.63030
O689        O  0.24927220  0.79528436  0.97479864    -0.75540
O690        O  0.24994368  0.70439201  0.97486479    -0.74320
Cu691      Cu  0.25015669  0.75003759  0.52694707     1.04560
Cu692      Cu  0.24970237  0.74982628  0.97307519     1.04330
C693        C  0.24960964  0.69021339  0.00006493     0.91980
C694        C  0.25015369  0.80955171  0.99995789     0.91120
C695        C  0.19022354  0.74999514  0.00023241     0.83270
C696        C  0.30975226  0.74977041  0.99981299     0.89540
C697        C  0.35939686  0.75866393  0.97377094    -0.14620
C698        C  0.34324753  0.74979112  0.99976093     0.07530
C699        C  0.35946895  0.74114718  0.52578844    -0.14620
C700        C  0.39113595  0.74090627  0.52569076    -0.14620
C701        C  0.40701314  0.75004142  0.99985279     0.07530
C702        C  0.39107703  0.75911363  0.97395483    -0.14620
H703        H  0.34754847  0.76560079  0.95343726     0.11520
H704        H  0.34763919  0.73414290  0.54610771     0.11520
H705        H  0.40322429  0.73388125  0.54586572     0.11520
H706        H  0.40317172  0.76618645  0.95380368     0.11520
C707        C  0.10944634  0.72312561  0.99427089    -0.14620
C708        C  0.09329078  0.74994716  0.00012833     0.07530
C709        C  0.10955541  0.77677182  0.50610875    -0.14620
C710        C  0.14122829  0.77671740  0.50642586    -0.14620
C711        C  0.15706553  0.74996146  0.00034166     0.07530
C712        C  0.14112214  0.72321366  0.99415143    -0.14620
H713        H  0.09762451  0.70213093  0.98954283     0.11520
H714        H  0.09777338  0.79776576  0.51074467     0.11520
H715        H  0.15334837  0.79756133  0.51114376     0.11520
H716        H  0.15320939  0.70239459  0.98943442     0.11520
C717        C  0.27752089  0.89042553  0.50333479    -0.14620
C718        C  0.25026317  0.90647189  0.00002536     0.07530
C719        C  0.22299321  0.89023023  0.99665908    -0.14620
C720        C  0.22301964  0.85856974  0.99647331    -0.14620
C721        C  0.25022391  0.84269958  0.99993400     0.07530
C722        C  0.27744881  0.85874489  0.50343835    -0.14620
H723        H  0.29887488  0.90224907  0.50599438     0.11520
H724        H  0.20163080  0.90197079  0.99402878     0.11520
H725        H  0.20182091  0.84643906  0.99379949     0.11520
H726        H  0.29862697  0.84665681  0.50610385     0.11520
C727        C  0.27672691  0.60962503  0.50416771    -0.14620
C728        C  0.24945469  0.59329939  0.99998723     0.07530
C729        C  0.22230595  0.60945077  0.99586042    -0.14620
C730        C  0.22238726  0.64113521  0.99575964    -0.14620
C731        C  0.24950958  0.65706668  0.00009393     0.07530
C732        C  0.27670849  0.64128392  0.50436582    -0.14620
H733        H  0.29798983  0.59786781  0.50745455     0.11520
H734        H  0.20104802  0.59762391  0.99252494     0.11520
H735        H  0.20130600  0.65323283  0.99243288     0.11520
H736        H  0.29782016  0.65340121  0.50769732     0.11520
C737        C  0.27464906  0.51145839  0.85886439    -0.14620
C738        C  0.25006501  0.99917808  0.84290571     0.07530
C739        C  0.22544643  0.98703918  0.85885577    -0.14620
C740        C  0.22521128  0.98757326  0.89053761    -0.14620
C741        C  0.25000149  0.99948192  0.90667122     0.07530
C742        C  0.27483418  0.51120963  0.89054089    -0.14620
H743        H  0.29382255  0.52090450  0.84678477     0.11520
H744        H  0.20623381  0.97762899  0.84677503     0.11520
H745        H  0.20583814  0.97831574  0.90242514     0.11520
H746        H  0.29416170  0.52062053  0.90242061     0.11520
C747        C  0.27356334  0.51451407  0.64101858    -0.14620
C748        C  0.24977477  0.00086531  0.65701832     0.07530
C749        C  0.22598549  0.98704460  0.64109658    -0.14620
C750        C  0.22574161  0.98726195  0.60941967    -0.14620
C751        C  0.24979516  0.00046743  0.59326721     0.07530
C752        C  0.27381681  0.51391283  0.60933958    -0.14620
H753        H  0.29216051  0.52513637  0.65305791     0.11520
H754        H  0.20744689  0.97643492  0.65320496     0.11520
H755        H  0.20703207  0.97666142  0.59754807     0.11520
H756        H  0.29255740  0.52433154  0.59739506     0.11520
C757        C  0.01171613  0.77456086  0.89052593    -0.14620
C758        C  0.49979590  0.74981506  0.90666148     0.07530
C759        C  0.48776716  0.72509028  0.89053050    -0.14620
C760        C  0.48729693  0.72531400  0.85885017    -0.14620
C761        C  0.49961184  0.74984990  0.84290625     0.07530
C762        C  0.01200769  0.77436648  0.85885691    -0.14620
H763        H  0.02120203  0.79385565  0.90239432     0.11520
H764        H  0.47834696  0.70579337  0.90241106     0.11520
H765        H  0.47774690  0.70617693  0.84676429     0.11520
H766        H  0.02153918  0.79349806  0.84677904     0.11520
C767        C  0.49374566  0.77692567  0.60954861    -0.14620
C768        C  0.50007783  0.75021614  0.59335643     0.07530
C769        C  0.00652547  0.72353146  0.60953444    -0.14620
C770        C  0.00686261  0.72363854  0.64120646    -0.14620
C771        C  0.50029420  0.75025866  0.65713697     0.07530
C772        C  0.49361151  0.77685929  0.64122939    -0.14620
H773        H  0.48864029  0.79780596  0.59774848     0.11520
H774        H  0.01153589  0.70262188  0.59772767     0.11520
H775        H  0.01196604  0.70291031  0.65329974     0.11520
H776        H  0.48850874  0.79758311  0.65334623     0.11520
C777        C  0.10943688  0.98852716  0.72497140    -0.14620
C778        C  0.09328690  0.00057169  0.74961383     0.07530
C779        C  0.10940007  0.51287860  0.77422242    -0.14620
C780        C  0.14107425  0.51345607  0.77401282    -0.14620
C781        C  0.15704823  0.00098071  0.74960728     0.07530
C782        C  0.14111573  0.98833617  0.72518970    -0.14620
H783        H  0.09757461  0.97881154  0.70578851     0.11520
H784        H  0.09750138  0.52238734  0.79345017     0.11520
H785        H  0.15313059  0.52314219  0.79310021     0.11520
H786        H  0.15321891  0.97863068  0.70617716     0.11520
C787        C  0.39116554  0.97370419  0.74078822    -0.14620
C788        C  0.40709834  0.99942498  0.75049465     0.07530
C789        C  0.39116784  0.52506298  0.76016312    -0.14620
C790        C  0.35950527  0.52514257  0.75978151    -0.14620
C791        C  0.34333137  0.99930811  0.75035600     0.07530
C792        C  0.35947206  0.97349700  0.74105288    -0.14620
H793        H  0.40327433  0.95373148  0.73328891     0.11520
H794        H  0.40325313  0.54511617  0.76761479     0.11520
H795        H  0.34767635  0.54531683  0.76715300     0.11520
H796        H  0.34760746  0.95333385  0.73358737     0.11520
C797        C  0.47505792  0.89109775  0.73902351    -0.14620
C798        C  0.99986989  0.90703045  0.75087595     0.07530
C799        C  0.02466738  0.89107275  0.76256200    -0.14620
C800        C  0.02485534  0.85940078  0.76199451    -0.14620
C801        C  0.49985696  0.84328818  0.75050030     0.07530
C802        C  0.47484574  0.85942609  0.73923164    -0.14620
H803        H  0.45574335  0.90319371  0.72993364     0.11520
H804        H  0.04404449  0.90314051  0.77164821     0.11520
H805        H  0.04436235  0.84750219  0.77090442     0.11520
H806        H  0.45535570  0.84755637  0.73014507     0.11520
C807        C  0.47249295  0.60865529  0.74941840    -0.14620
C808        C  0.49990748  0.59276628  0.74911195     0.07530
C809        C  0.02736142  0.60869734  0.74905042    -0.14620
C810        C  0.02743224  0.64037447  0.74926417    -0.14620
C811        C  0.49998472  0.65655534  0.74953015     0.07530
C812        C  0.47250223  0.64032805  0.74958769    -0.14620
H813        H  0.45112651  0.59653167  0.74958475     0.11520
H814        H  0.04870135  0.59660116  0.74892642     0.11520
H815        H  0.04896478  0.65216786  0.74922295     0.11520
H816        H  0.45099050  0.65208387  0.74983235     0.11520
O817        O  0.99970903  0.04572760  0.27476148    -0.74210
O818        O  0.50098331  0.45481062  0.27560225    -0.75200
O819        O  0.54562619  0.50114898  0.27493362    -0.63810
O820        O  0.95472027  0.99996052  0.27540787    -0.72230
O821        O  0.95432429  0.99948275  0.22503970    -0.71780
O822        O  0.54528405  0.49912040  0.22468876    -0.63030
O823        O  0.49914418  0.45414551  0.22527681    -0.75540
O824        O  0.00006394  0.04504686  0.22439444    -0.74320
Cu825      Cu  0.00025044  0.50039383  0.27694422     1.04560
Cu826      Cu  0.49972090  0.99946428  0.22307922     1.04330
C827        C  0.99987822  0.05961373  0.24941242     0.91980
C828        C  0.50003083  0.44022931  0.25059972     0.91120
C829        C  0.55982909  0.50025086  0.24973408     0.83270
C830        C  0.94028175  0.99961765  0.25031531     0.89540
O831        O  0.97487196  0.20446901  0.24916942    -0.74210
O832        O  0.97476073  0.29538851  0.25030507    -0.75200
O833        O  0.97494145  0.25070948  0.20439918    -0.63810
O834        O  0.97461213  0.24902557  0.29530840    -0.72230
O835        O  0.52494023  0.25068679  0.29558578    -0.71780
O836        O  0.52528884  0.24961328  0.20467825    -0.63030
O837        O  0.52504515  0.29554993  0.25006194    -0.75540
O838        O  0.52509618  0.20459948  0.25044669    -0.74320
Cu839      Cu  0.97303726  0.24990014  0.24980138     1.04560
Cu840      Cu  0.52685459  0.25010650  0.25018613     1.04330
C841        C  0.99999292  0.19011019  0.24973334     0.91980
C842        C  0.99988544  0.30983987  0.25026803     0.91120
C843        C  0.00017716  0.25020926  0.19030350     0.83270
C844        C  0.99971677  0.24983108  0.30970077     0.89540
O845        O  0.74893007  0.47448017  0.29511457    -0.74210
O846        O  0.74943915  0.47527250  0.20418936    -0.75200
O847        O  0.79510512  0.47449601  0.24973431    -0.63810
O848        O  0.70411853  0.47533105  0.24895589    -0.72230
O849        O  0.70491056  0.02564551  0.25081655    -0.71780
O850        O  0.79579231  0.02475172  0.25034946    -0.63030
O851        O  0.75053173  0.02560792  0.20481296    -0.75540
O852        O  0.75097314  0.02478780  0.29575517    -0.74320
Cu853      Cu  0.74942763  0.47312434  0.24951745     1.04560
Cu854      Cu  0.75052671  0.02696030  0.25041517     1.04330
C855        C  0.74997124  0.49947960  0.30969123     0.91980
C856        C  0.74993608  0.50058858  0.19024146     0.91120
C857        C  0.80983916  0.49948111  0.25011750     0.83270
C858        C  0.69026008  0.50066721  0.24981818     0.89540
O859        O  0.72459077  0.04525595  0.49978234    -0.74210
O860        O  0.72498562  0.45422322  0.99992380    -0.75200
O861        O  0.72468091  0.49951320  0.04540200    -0.63810
O862        O  0.72483625  0.99940949  0.45444176    -0.72230
O863        O  0.77510111  0.50029042  0.45457984    -0.71780
O864        O  0.77495262  0.50056396  0.04553331    -0.63030
O865        O  0.77523483  0.45472921  0.50023580    -0.75540
O866        O  0.77482739  0.04564875  0.50002349    -0.74320
Cu867      Cu  0.72299402  0.49956020  0.99989249     1.04560
Cu868      Cu  0.77678834  0.50030879  0.50008723     1.04330
C869        C  0.74963769  0.05986853  0.49991267     0.91980
C870        C  0.75018771  0.44011475  0.50007737     0.91120
C871        C  0.74979314  0.50012970  0.05983366     0.83270
C872        C  0.74999413  0.49977174  0.44013187     0.89540
O873        O  0.00089676  0.22501539  0.04548377    -0.74210
O874        O  0.49867474  0.22480354  0.45457130    -0.75200
O875        O  0.54532740  0.22486439  0.49904051    -0.63810
O876        O  0.95437718  0.22490445  0.00127220    -0.72230
O877        O  0.95457727  0.27519939  0.49855709    -0.71780
O878        O  0.54547028  0.27506158  0.50094261    -0.63030
O879        O  0.00118526  0.27500941  0.45443072    -0.75540
O880        O  0.99890611  0.27520814  0.04534021    -0.74320
Cu881      Cu  0.49984384  0.22314428  0.50007979     1.04560
Cu882      Cu  0.00004689  0.27687904  0.49982730     1.04330
C883        C  0.99993056  0.25015413  0.05982700     0.91980
C884        C  0.49990626  0.24986631  0.44012084     0.91120
C885        C  0.55981512  0.24995018  0.50002475     0.83270
C886        C  0.94025304  0.25007872  0.49988569     0.89540
O887        O  0.74944302  0.20448320  0.02523589    -0.74210
O888        O  0.75091344  0.29536884  0.02514558    -0.75200
O889        O  0.70459909  0.25072762  0.02534637    -0.63810
O890        O  0.79548041  0.24917982  0.02498889    -0.72230
O891        O  0.79529702  0.25052522  0.47473612    -0.71780
O892        O  0.70436457  0.24930060  0.47499133    -0.63030
O893        O  0.74928526  0.29538866  0.47480264    -0.75540
O894        O  0.75004827  0.20449738  0.47486027    -0.74320
Cu895      Cu  0.75010050  0.24993876  0.02694718     1.04560
Cu896      Cu  0.74976090  0.24993055  0.47307505     1.04330
C897        C  0.74972453  0.19031586  0.50005882     0.91980
C898        C  0.75015349  0.30965418  0.49996338     0.91120
C899        C  0.69028053  0.25003691  0.50023127     0.83270
C900        C  0.80980949  0.24991374  0.49981501     0.89540
C901        C  0.85946026  0.25877898  0.47377372    -0.14620
C902        C  0.84330455  0.24992132  0.49976468     0.07530
C903        C  0.85941851  0.24103864  0.02578777    -0.14620
C904        C  0.89108607  0.24083638  0.02569470    -0.14620
C905        C  0.90706984  0.25009305  0.49984698     0.07530
C906        C  0.89114087  0.25919013  0.47395314    -0.14620
H907        H  0.84761697  0.26573009  0.45344195     0.11520
H908        H  0.84759387  0.23402515  0.04610686     0.11520
H909        H  0.90317991  0.23382589  0.04587144     0.11520
H910        H  0.90324117  0.26625347  0.45380202     0.11520
C911        C  0.60951223  0.22312650  0.49427580    -0.14620
C912        C  0.59334720  0.24994250  0.50013273     0.07530
C913        C  0.60950812  0.27677064  0.00610548    -0.14620
C914        C  0.64118192  0.27670339  0.00642501    -0.14620
C915        C  0.65712236  0.24998273  0.50034146     0.07530
C916        C  0.64118919  0.22322736  0.49415399    -0.14620
H917        H  0.59769707  0.20212779  0.48954902     0.11520
H918        H  0.59773270  0.29776831  0.01074139     0.11520
H919        H  0.65331049  0.29754204  0.01114425     0.11520
H920        H  0.65328491  0.20241330  0.48943692     0.11520
C921        C  0.77752639  0.39032556  0.00332777    -0.14620
C922        C  0.75026001  0.40657482  0.50003167     0.07530
C923        C  0.72298757  0.39033625  0.49666763    -0.14620
C924        C  0.72301133  0.35867445  0.49648283    -0.14620
C925        C  0.75021553  0.34280237  0.49994268     0.07530
C926        C  0.77745696  0.35864367  0.00343043    -0.14620
H927        H  0.79887855  0.40215216  0.00598855     0.11520
H928        H  0.70162689  0.40208002  0.49403741     0.11520
H929        H  0.70181199  0.34654485  0.49380935     0.11520
H930        H  0.79863552  0.34655654  0.00609680     0.11520
C931        C  0.77661098  0.10952743  0.00419832    -0.14620
C932        C  0.74956307  0.09340268  0.49997940     0.07530
C933        C  0.72241552  0.10955985  0.49587134    -0.14620
C934        C  0.72250276  0.14124292  0.49577031    -0.14620
C935        C  0.74963024  0.15716966  0.50008341     0.07530
C936        C  0.77658615  0.14118512  0.00439828    -0.14620
H937        H  0.79787426  0.09777534  0.00750103     0.11520
H938        H  0.70115200  0.09773836  0.49255290     0.11520
H939        H  0.70142071  0.15334387  0.49246048     0.11520
H940        H  0.79769350  0.15330549  0.00774609     0.11520
C941        C  0.77468200  0.01149503  0.35885168    -0.14620
C942        C  0.75008974  0.49921326  0.34290634     0.07530
C943        C  0.72547218  0.48709034  0.35886958    -0.14620
C944        C  0.72524515  0.48764400  0.39055095    -0.14620
C945        C  0.75004216  0.49955657  0.40667155     0.07530
C946        C  0.77487502  0.01126569  0.39052851    -0.14620
H947        H  0.79385496  0.02092865  0.34676148     0.11520
H948        H  0.70625363  0.47767880  0.34679931     0.11520
H949        H  0.70587231  0.47839892  0.40244865     0.11520
H950        H  0.79420813  0.02067769  0.40239823     0.11520
C951        C  0.77352968  0.01447577  0.14100438    -0.14620
C952        C  0.74974921  0.50083019  0.15701838     0.07530
C953        C  0.72595824  0.48699540  0.14111088    -0.14620
C954        C  0.72570615  0.48719279  0.10943370    -0.14620
C955        C  0.74975341  0.50039220  0.09326734     0.07530
C956        C  0.77377505  0.01385485  0.10932587    -0.14620
H957        H  0.79212778  0.02510934  0.15303235     0.11520
H958        H  0.70742536  0.47638864  0.15323054     0.11520
H959        H  0.70699599  0.47658102  0.09757316     0.11520
H960        H  0.79251025  0.02427097  0.09737062     0.11520
C961        C  0.51174859  0.27456383  0.39052033    -0.14620
C962        C  0.99983521  0.24981818  0.40666079     0.07530
C963        C  0.98779752  0.22509424  0.39053479    -0.14620
C964        C  0.98731391  0.22531788  0.35885461    -0.14620
C965        C  0.99962378  0.24985304  0.34290579     0.07530
C966        C  0.51202653  0.27436943  0.35885134    -0.14620
H967        H  0.52123998  0.29385842  0.40238464     0.11520
H968        H  0.97838127  0.20579779  0.40241923     0.11520
H969        H  0.97775888  0.20618082  0.34677264     0.11520
H970        H  0.52155438  0.29350032  0.34676952     0.11520
C971        C  0.99371671  0.27692522  0.10955049    -0.14620
C972        C  0.00004232  0.25021482  0.09335705     0.07530
C973        C  0.50649882  0.22353152  0.10953369    -0.14620
C974        C  0.50684835  0.22364003  0.14120550    -0.14620
C975        C  0.00028412  0.25026034  0.15713733     0.07530
C976        C  0.99359512  0.27686028  0.14123128    -0.14620
H977        H  0.98860622  0.29780489  0.09775148     0.11520
H978        H  0.51150567  0.20262164  0.09772594     0.11520
H979        H  0.51195653  0.20291234  0.15329770     0.11520
H980        H  0.98849555  0.29758424  0.15334925     0.11520
C981        C  0.60943833  0.48852829  0.22497352    -0.14620
C982        C  0.59328710  0.50057213  0.24961545     0.07530
C983        C  0.60939907  0.01287844  0.27422518    -0.14620
C984        C  0.64107325  0.01345550  0.27401754    -0.14620
C985        C  0.65704842  0.50098048  0.24961276     0.07530
C986        C  0.64111723  0.48833710  0.22519365    -0.14620
H987        H  0.59757705  0.47881327  0.20578972     0.11520
H988        H  0.59749942  0.02238684  0.29345250     0.11520
H989        H  0.65312862  0.02314115  0.29310577     0.11520
H990        H  0.65322148  0.47863217  0.20618150     0.11520
C991        C  0.89116588  0.47370350  0.24078777    -0.14620
C992        C  0.90709835  0.49942457  0.25049403     0.07530
C993        C  0.89116749  0.02506300  0.26016084    -0.14620
C994        C  0.85950491  0.02514294  0.25977701    -0.14620
C995        C  0.84333142  0.49930842  0.25035099     0.07530
C996        C  0.85947238  0.47349662  0.24105044    -0.14620
H997        H  0.90327494  0.45373042  0.23328987     0.11520
H998        H  0.90325250  0.04511632  0.26761261     0.11520
H999        H  0.84767559  0.04531741  0.26714730     0.11520
H1000       H  0.84760796  0.45333328  0.23358517     0.11520
C1001       C  0.97505791  0.39109756  0.23902373    -0.14620
C1002       C  0.49986995  0.40703026  0.25087602     0.07530
C1003       C  0.52466746  0.39107257  0.26256204    -0.14620
C1004       C  0.52485539  0.35940061  0.26199463    -0.14620
C1005       C  0.99985694  0.34328804  0.25050060     0.07530
C1006       C  0.97484568  0.35942590  0.23923200    -0.14620
H1007       H  0.95574333  0.40319351  0.22993387     0.11520
H1008       H  0.54404461  0.40314034  0.27164816     0.11520
H1009       H  0.54436241  0.34750198  0.27090448     0.11520
H1010       H  0.95535562  0.34755612  0.23014553     0.11520
C1011       C  0.97249300  0.10865515  0.24941835    -0.14620
C1012       C  0.99990753  0.09276613  0.24911190     0.07530
C1013       C  0.52736146  0.10869719  0.24905017    -0.14620
C1014       C  0.52743228  0.14037433  0.24926372    -0.14620
C1015       C  0.99998477  0.15655523  0.24952975     0.07530
C1016       C  0.97250228  0.14032792  0.24958750    -0.14620
H1017       H  0.95112656  0.09653153  0.24958481     0.11520
H1018       H  0.54870139  0.09660102  0.24892617     0.11520
H1019       H  0.54896483  0.15216772  0.24922241     0.11520
H1020       H  0.95099055  0.15208374  0.24983215     0.11520
O1021       O  0.99970925  0.04572776  0.77476145    -0.74210
O1022       O  0.50098348  0.45481081  0.77560218    -0.75200
O1023       O  0.54562654  0.50114910  0.77493332    -0.63810
O1024       O  0.95472048  0.99996078  0.77540787    -0.72230
O1025       O  0.95432396  0.99948297  0.72503970    -0.71780
O1026       O  0.54528345  0.49912053  0.72468846    -0.63030
O1027       O  0.49914380  0.45414572  0.72527676    -0.75540
O1028       O  0.00006357  0.04504706  0.72439440    -0.74320
Cu1029     Cu  0.00025068  0.50039403  0.77694414     1.04560
Cu1030     Cu  0.49972049  0.99946448  0.72307915     1.04330
C1031       C  0.99987814  0.05961391  0.74941240     0.91980
C1032       C  0.50003074  0.44022950  0.75059966     0.91120
C1033       C  0.55982894  0.50025084  0.74973350     0.83270
C1034       C  0.94028171  0.99961791  0.75031545     0.89540
O1035       O  0.97487192  0.20446908  0.74916703    -0.74210
O1036       O  0.97476068  0.29538858  0.75030204    -0.75200
O1037       O  0.97494520  0.25070893  0.70439607    -0.63810
O1038       O  0.97460792  0.24902571  0.79530532    -0.72230
O1039       O  0.52493600  0.25068687  0.79558939    -0.71780
O1040       O  0.52529255  0.24961277  0.70468109    -0.63030
O1041       O  0.52504513  0.29554994  0.75006449    -0.75540
O1042       O  0.52509604  0.20459954  0.75044982    -0.74320
Cu1043     Cu  0.97303717  0.24990016  0.74979836     1.04560
Cu1044     Cu  0.52685445  0.25010649  0.75018927     1.04330
C1045       C  0.99999282  0.19011027  0.74973376     0.91980
C1046       C  0.99988541  0.30983995  0.75026774     0.91120
C1047       C  0.00018254  0.25020824  0.69030329     0.83270
C1048       C  0.99971061  0.24983062  0.80970110     0.89540
O1049       O  0.74892048  0.47446421  0.79510406    -0.74210
O1050       O  0.74944829  0.47528843  0.70417924    -0.75200
O1051       O  0.79510491  0.47449585  0.74973150    -0.63810
O1052       O  0.70411842  0.47533150  0.74893888    -0.72230
O1053       O  0.70491053  0.02564520  0.75082010    -0.71780
O1054       O  0.79579217  0.02475132  0.75036411    -0.63030
O1055       O  0.75053973  0.02562366  0.70482256    -0.75540
O1056       O  0.75096529  0.02477151  0.79576448    -0.74320
Cu1057     Cu  0.74942742  0.47312438  0.74950677     1.04560
Cu1058     Cu  0.75052669  0.02695999  0.75042501     1.04330
C1059       C  0.74995797  0.49945800  0.80969061     0.91980
C1060       C  0.74994943  0.50060993  0.69024128     0.91120
C1061       C  0.80983903  0.49948080  0.75012366     0.83270
C1062       C  0.69025998  0.50066733  0.74981122     0.89540
O1063       O  0.72450564  0.04513929  0.99978277    -0.74210
O1064       O  0.72500100  0.45433837  0.49992468    -0.75200
O1065       O  0.72472886  0.49962802  0.54540011    -0.63810
O1066       O  0.72478871  0.99929531  0.95443968    -0.72230
O1067       O  0.77505302  0.50020579  0.95458193    -0.71780
O1068       O  0.77500113  0.50065156  0.54553508    -0.63030
O1069       O  0.77521923  0.45463882  0.00023418    -0.75540
O1070       O  0.77474214  0.04555938  0.00002592    -0.74320
Cu1071     Cu  0.72304325  0.49967799  0.49989266     1.04560
Cu1072     Cu  0.77673873  0.50022145  0.00008747     1.04330
C1073       C  0.74954435  0.05976539  0.99991561     0.91980
C1074       C  0.75017935  0.44001193  0.00007490     0.91120
C1075       C  0.74984015  0.50022507  0.55983355     0.83270
C1076       C  0.74994776  0.49967799  0.94013177     0.89540
O1077       O  0.00094206  0.22501865  0.54548257    -0.74210
O1078       O  0.49862619  0.22479902  0.95457153    -0.75200
O1079       O  0.54527407  0.22487221  0.99903963    -0.63810
O1080       O  0.95442247  0.22492822  0.50126903    -0.72230
O1081       O  0.95451027  0.27517558  0.99856058    -0.71780
O1082       O  0.54541161  0.27506947  0.00094159    -0.63030
O1083       O  0.00112268  0.27500558  0.95443205    -0.75540
O1084       O  0.99896494  0.27521197  0.54533984    -0.74320
Cu1085     Cu  0.49979579  0.22313911  0.00008075     1.04560
Cu1086     Cu  0.99998377  0.27687391  0.99982829     1.04330
C1087       C  0.99997853  0.25015712  0.55982626     0.91980
C1088       C  0.49985445  0.24986242  0.94012160     0.91120
C1089       C  0.55975899  0.24995903  0.00002284     0.83270
C1090       C  0.94019672  0.25004805  0.99989022     0.89540
O1091       O  0.74954284  0.20458234  0.52523145    -0.74210
O1092       O  0.75092575  0.29546909  0.52514953    -0.75200
O1093       O  0.70465525  0.25078217  0.52534528    -0.63810
O1094       O  0.79553664  0.24931777  0.52499013    -0.72230
O1095       O  0.79523864  0.25038084  0.97473476    -0.71780
O1096       O  0.70430655  0.24924227  0.97499251    -0.63030
O1097       O  0.74927220  0.29528436  0.97479863    -0.75540
O1098       O  0.74994368  0.20439201  0.97486479    -0.74320
Cu1099     Cu  0.75015670  0.25003759  0.52694707     1.04560
Cu1100     Cu  0.74970236  0.24982628  0.97307519     1.04330
C1101       C  0.74960964  0.19021338  0.00006493     0.91980
C1102       C  0.75015369  0.30955170  0.99995788     0.91120
C1103       C  0.69022353  0.24999514  0.00023240     0.83270
C1104       C  0.80975226  0.24977040  0.99981299     0.89540
C1105       C  0.85939686  0.25866387  0.97377092    -0.14620
C1106       C  0.84324753  0.24979110  0.99976093     0.07530
C1107       C  0.85946896  0.24114719  0.52578844    -0.14620
C1108       C  0.89113595  0.24090627  0.52569076    -0.14620
C1109       C  0.90701314  0.25004140  0.99985279     0.07530
C1110       C  0.89107703  0.25911356  0.97395481    -0.14620
H1111       H  0.84754847  0.26560069  0.95343723     0.11520
H1112       H  0.84763919  0.23414291  0.54610771     0.11520
H1113       H  0.90322429  0.23388125  0.54586571     0.11520
H1114       H  0.90317171  0.26618634  0.95380365     0.11520
C1115       C  0.60944634  0.22312561  0.99427087    -0.14620
C1116       C  0.59329077  0.24994716  0.00012832     0.07530
C1117       C  0.60955541  0.27677181  0.50610874    -0.14620
C1118       C  0.64122829  0.27671739  0.50642585    -0.14620
C1119       C  0.65706553  0.24996146  0.00034165     0.07530
C1120       C  0.64112214  0.22321366  0.99415141    -0.14620
H1121       H  0.59762450  0.20213093  0.98954280     0.11520
H1122       H  0.59777338  0.29776575  0.51074465     0.11520
H1123       H  0.65334837  0.29756133  0.51114374     0.11520
H1124       H  0.65320938  0.20239460  0.98943439     0.11520
C1125       C  0.77752091  0.39042553  0.50333478    -0.14620
C1126       C  0.75026318  0.40647189  0.00002536     0.07530
C1127       C  0.72299321  0.39023023  0.99665907    -0.14620
C1128       C  0.72301964  0.35856974  0.99647330    -0.14620
C1129       C  0.75022391  0.34269957  0.99993399     0.07530
C1130       C  0.77744882  0.35874489  0.50343834    -0.14620
H1131       H  0.79887490  0.40224906  0.50599437     0.11520
H1132       H  0.70163080  0.40197079  0.99402877     0.11520
H1133       H  0.70182091  0.34643906  0.99379947     0.11520
H1134       H  0.79862698  0.34665680  0.50610383     0.11520
C1135       C  0.77672694  0.10962503  0.50416771    -0.14620
C1136       C  0.74945470  0.09329938  0.99998722     0.07530
C1137       C  0.72230596  0.10945076  0.99586043    -0.14620
C1138       C  0.72238726  0.14113520  0.99575965    -0.14620
C1139       C  0.74950958  0.15706668  0.00009393     0.07530
C1140       C  0.77670851  0.14128392  0.50436581    -0.14620
H1141       H  0.79798985  0.09786781  0.50745454     0.11520
H1142       H  0.70104803  0.09762390  0.99252495     0.11520
H1143       H  0.70130600  0.15323282  0.99243289     0.11520
H1144       H  0.79782018  0.15340121  0.50769732     0.11520
C1145       C  0.77464908  0.01145835  0.85886439    -0.14620
C1146       C  0.75006503  0.49917808  0.84290571     0.07530
C1147       C  0.72544647  0.48703913  0.85885578    -0.14620
C1148       C  0.72521132  0.48757320  0.89053761    -0.14620
C1149       C  0.75000151  0.49948192  0.90667122     0.07530
C1150       C  0.77483421  0.01120959  0.89054089    -0.14620
H1151       H  0.79382259  0.02090444  0.84678476     0.11520
H1152       H  0.70623386  0.47762890  0.84677503     0.11520
H1153       H  0.70583820  0.47831565  0.90242514     0.11520
H1154       H  0.79416175  0.02062046  0.90242061     0.11520
C1155       C  0.77356338  0.01451403  0.64101859    -0.14620
C1156       C  0.74977479  0.50086530  0.65701832     0.07530
C1157       C  0.72598554  0.48704454  0.64109658    -0.14620
C1158       C  0.72574166  0.48726189  0.60941967    -0.14620
C1159       C  0.74979519  0.50046742  0.59326721     0.07530
C1160       C  0.77381685  0.01391279  0.60933958    -0.14620
H1161       H  0.79216057  0.02513630  0.65305791     0.11520
H1162       H  0.70744696  0.47643482  0.65320496     0.11520
H1163       H  0.70703214  0.47666133  0.59754806     0.11520
H1164       H  0.79255747  0.02433146  0.59739506     0.11520
C1165       C  0.51171617  0.27456085  0.89052594    -0.14620
C1166       C  0.99979589  0.24981506  0.90666149     0.07530
C1167       C  0.98776719  0.22509026  0.89053050    -0.14620
C1168       C  0.98729696  0.22531398  0.85885017    -0.14620
C1169       C  0.99961182  0.24984991  0.84290625     0.07530
C1170       C  0.51200773  0.27436647  0.85885691    -0.14620
H1171       H  0.52120209  0.29385562  0.90239433     0.11520
H1172       H  0.97834704  0.20579333  0.90241106     0.11520
H1173       H  0.97774697  0.20617689  0.84676429     0.11520
H1174       H  0.52153925  0.29349804  0.84677904     0.11520
C1175       C  0.99374559  0.27692565  0.60954861    -0.14620
C1176       C  0.00007782  0.25021612  0.59335643     0.07530
C1177       C  0.50652545  0.22353144  0.60953444    -0.14620
C1178       C  0.50686259  0.22363852  0.64120646    -0.14620
C1179       C  0.00029418  0.25025865  0.65713697     0.07530
C1180       C  0.99361144  0.27685927  0.64122939    -0.14620
H1181       H  0.98864017  0.29780592  0.59774848     0.11520
H1182       H  0.51153584  0.20262185  0.59772767     0.11520
H1183       H  0.51196599  0.20291028  0.65329974     0.11520
H1184       H  0.98850861  0.29758307  0.65334623     0.11520
C1185       C  0.60943689  0.48852718  0.72497139    -0.14620
C1186       C  0.59328691  0.50057167  0.74961383     0.07530
C1187       C  0.60940007  0.01287865  0.77422240    -0.14620
C1188       C  0.64107424  0.01345612  0.77401279    -0.14620
C1189       C  0.65704824  0.50098070  0.74960729     0.07530
C1190       C  0.64111574  0.48833619  0.72518968    -0.14620
H1191       H  0.59757462  0.47881159  0.70578848     0.11520
H1192       H  0.59750137  0.02238742  0.79345014     0.11520
H1193       H  0.65313058  0.02314227  0.79310018     0.11520
H1194       H  0.65321892  0.47863072  0.70617713     0.11520
C1195       C  0.89116555  0.47370419  0.74078821    -0.14620
C1196       C  0.90709835  0.49942498  0.75049464     0.07530
C1197       C  0.89116784  0.02506297  0.76016312    -0.14620
C1198       C  0.85950526  0.02514257  0.75978151    -0.14620
C1199       C  0.84333138  0.49930811  0.75035600     0.07530
C1200       C  0.85947207  0.47349700  0.74105287    -0.14620
H1201       H  0.90327434  0.45373149  0.73328889     0.11520
H1202       H  0.90325313  0.04511616  0.76761480     0.11520
H1203       H  0.84767634  0.04531682  0.76715300     0.11520
H1204       H  0.84760747  0.45333386  0.73358736     0.11520
C1205       C  0.97505792  0.39109776  0.73902351    -0.14620
C1206       C  0.49986989  0.40703045  0.75087594     0.07530
C1207       C  0.52466739  0.39107275  0.76256199    -0.14620
C1208       C  0.52485535  0.35940078  0.76199450    -0.14620
C1209       C  0.99985695  0.34328818  0.75050029     0.07530
C1210       C  0.97484573  0.35942609  0.73923163    -0.14620
H1211       H  0.95574335  0.40319371  0.72993363     0.11520
H1212       H  0.54404450  0.40314051  0.77164820     0.11520
H1213       H  0.54436236  0.34750219  0.77090440     0.11520
H1214       H  0.95535569  0.34755637  0.73014506     0.11520
C1215       C  0.97249292  0.10865529  0.74941840    -0.14620
C1216       C  0.99990745  0.09276628  0.74911195     0.07530
C1217       C  0.52736141  0.10869734  0.74905042    -0.14620
C1218       C  0.52743224  0.14037447  0.74926418    -0.14620
C1219       C  0.99998469  0.15655534  0.74953016     0.07530
C1220       C  0.97250220  0.14032805  0.74958770    -0.14620
H1221       H  0.95112649  0.09653167  0.74958476     0.11520
H1222       H  0.54870134  0.09660116  0.74892642     0.11520
H1223       H  0.54896479  0.15216786  0.74922296     0.11520
H1224       H  0.95099047  0.15208387  0.74983236     0.11520
O1225       O  0.99970901  0.54572760  0.27476148    -0.74210
O1226       O  0.50098330  0.95481061  0.27560225    -0.75200
O1227       O  0.54562620  0.00114896  0.27493362    -0.63810
O1228       O  0.95472026  0.49996051  0.27540787    -0.72230
O1229       O  0.95432428  0.49948274  0.22503970    -0.71780
O1230       O  0.54528405  0.99912040  0.22468876    -0.63030
O1231       O  0.49914418  0.95414552  0.22527681    -0.75540
O1232       O  0.00006393  0.54504685  0.22439444    -0.74320
Cu1233     Cu  0.00025044  0.00039383  0.27694422     1.04560
Cu1234     Cu  0.49972090  0.49946428  0.22307922     1.04330
C1235       C  0.99987820  0.55961373  0.24941242     0.91980
C1236       C  0.50003082  0.94022931  0.25059972     0.91120
C1237       C  0.55982909  0.00025085  0.24973408     0.83270
C1238       C  0.94028175  0.49961764  0.25031531     0.89540
O1239       O  0.97487194  0.70446901  0.24916941    -0.74210
O1240       O  0.97476071  0.79538851  0.25030508    -0.75200
O1241       O  0.97494143  0.75070948  0.20439918    -0.63810
O1242       O  0.97461211  0.74902557  0.29530840    -0.72230
O1243       O  0.52494021  0.75068678  0.29558578    -0.71780
O1244       O  0.52528882  0.74961328  0.20467825    -0.63030
O1245       O  0.52504513  0.79554993  0.25006194    -0.75540
O1246       O  0.52509616  0.70459948  0.25044669    -0.74320
Cu1247     Cu  0.97303724  0.74990014  0.24980138     1.04560
Cu1248     Cu  0.52685457  0.75010649  0.25018613     1.04330
C1249       C  0.99999289  0.69011019  0.24973333     0.91980
C1250       C  0.99988542  0.80983987  0.25026803     0.91120
C1251       C  0.00017714  0.75020926  0.19030349     0.83270
C1252       C  0.99971675  0.74983107  0.30970077     0.89540
O1253       O  0.74893008  0.97448018  0.29511457    -0.74210
O1254       O  0.74943916  0.97527250  0.20418936    -0.75200
O1255       O  0.79510513  0.97449601  0.24973431    -0.63810
O1256       O  0.70411853  0.97533105  0.24895589    -0.72230
O1257       O  0.70491055  0.52564551  0.25081656    -0.71780
O1258       O  0.79579231  0.52475172  0.25034946    -0.63030
O1259       O  0.75053172  0.52560792  0.20481296    -0.75540
O1260       O  0.75097313  0.52478780  0.29575517    -0.74320
Cu1261     Cu  0.74942764  0.97312434  0.24951746     1.04560
Cu1262     Cu  0.75052671  0.52696030  0.25041517     1.04330
C1263       C  0.74997124  0.99947960  0.30969123     0.91980
C1264       C  0.74993608  0.00058858  0.19024146     0.91120
C1265       C  0.80983916  0.99948112  0.25011750     0.83270
C1266       C  0.69026008  0.00066720  0.24981817     0.89540
O1267       O  0.72459078  0.54525595  0.49978235    -0.74210
O1268       O  0.72498562  0.95422322  0.99992380    -0.75200
O1269       O  0.72468091  0.99951320  0.04540200    -0.63810
O1270       O  0.72483626  0.49940949  0.45444176    -0.72230
O1271       O  0.77510110  0.00029042  0.45457984    -0.71780
O1272       O  0.77495262  0.00056396  0.04553331    -0.63030
O1273       O  0.77523482  0.95472921  0.50023580    -0.75540
O1274       O  0.77482740  0.54564875  0.50002348    -0.74320
Cu1275     Cu  0.72299402  0.99956020  0.99989249     1.04560
Cu1276     Cu  0.77678833  0.00030879  0.50008723     1.04330
C1277       C  0.74963769  0.55986853  0.49991267     0.91980
C1278       C  0.75018770  0.94011476  0.50007737     0.91120
C1279       C  0.74979314  0.00012970  0.05983366     0.83270
C1280       C  0.74999413  0.99977175  0.44013187     0.89540
O1281       O  0.00089676  0.72501539  0.04548377    -0.74210
O1282       O  0.49867473  0.72480354  0.45457130    -0.75200
O1283       O  0.54532739  0.72486440  0.49904050    -0.63810
O1284       O  0.95437718  0.72490446  0.00127220    -0.72230
O1285       O  0.95457726  0.77519939  0.49855709    -0.71780
O1286       O  0.54547027  0.77506159  0.50094260    -0.63030
O1287       O  0.00118525  0.77500941  0.45443071    -0.75540
O1288       O  0.99890611  0.77520815  0.04534021    -0.74320
Cu1289     Cu  0.49984384  0.72314428  0.50007979     1.04560
Cu1290     Cu  0.00004688  0.77687904  0.49982730     1.04330
C1291       C  0.99993056  0.75015414  0.05982700     0.91980
C1292       C  0.49990625  0.74986631  0.44012084     0.91120
C1293       C  0.55981512  0.74995019  0.50002475     0.83270
C1294       C  0.94025304  0.75007872  0.49988570     0.89540
O1295       O  0.74944303  0.70448320  0.02523589    -0.74210
O1296       O  0.75091344  0.79536884  0.02514559    -0.75200
O1297       O  0.70459910  0.75072761  0.02534637    -0.63810
O1298       O  0.79548041  0.74917983  0.02498889    -0.72230
O1299       O  0.79529701  0.75052522  0.47473612    -0.71780
O1300       O  0.70436456  0.74930060  0.47499133    -0.63030
O1301       O  0.74928526  0.79538866  0.47480264    -0.75540
O1302       O  0.75004827  0.70449738  0.47486027    -0.74320
Cu1303     Cu  0.75010051  0.74993876  0.02694718     1.04560
Cu1304     Cu  0.74976089  0.74993055  0.47307505     1.04330
C1305       C  0.74972453  0.69031586  0.50005882     0.91980
C1306       C  0.75015349  0.80965418  0.49996338     0.91120
C1307       C  0.69028053  0.75003692  0.50023126     0.83270
C1308       C  0.80980949  0.74991374  0.49981501     0.89540
C1309       C  0.85946025  0.75877898  0.47377372    -0.14620
C1310       C  0.84330455  0.74992131  0.49976468     0.07530
C1311       C  0.85941852  0.74103861  0.02578775    -0.14620
C1312       C  0.89108607  0.74083635  0.02569468    -0.14620
C1313       C  0.90706983  0.75009306  0.49984698     0.07530
C1314       C  0.89114087  0.75919013  0.47395314    -0.14620
H1315       H  0.84761697  0.76573009  0.45344195     0.11520
H1316       H  0.84759388  0.73402509  0.04610683     0.11520
H1317       H  0.90317991  0.73382582  0.04587141     0.11520
H1318       H  0.90324116  0.76625347  0.45380202     0.11520
C1319       C  0.60951223  0.72312651  0.49427578    -0.14620
C1320       C  0.59334719  0.74994251  0.50013272     0.07530
C1321       C  0.60950812  0.77677064  0.00610548    -0.14620
C1322       C  0.64118193  0.77670338  0.00642500    -0.14620
C1323       C  0.65712236  0.74998274  0.50034146     0.07530
C1324       C  0.64118918  0.72322737  0.49415398    -0.14620
H1325       H  0.59769707  0.70212781  0.48954899     0.11520
H1326       H  0.59773271  0.79776830  0.01074138     0.11520
H1327       H  0.65331050  0.79754203  0.01114424     0.11520
H1328       H  0.65328490  0.70241331  0.48943689     0.11520
C1329       C  0.77752639  0.89032556  0.00332777    -0.14620
C1330       C  0.75026000  0.90657482  0.50003167     0.07530
C1331       C  0.72298757  0.89033625  0.49666763    -0.14620
C1332       C  0.72301132  0.85867445  0.49648283    -0.14620
C1333       C  0.75021553  0.84280238  0.49994268     0.07530
C1334       C  0.77745696  0.85864367  0.00343043    -0.14620
H1335       H  0.79887855  0.90215216  0.00598854     0.11520
H1336       H  0.70162688  0.90208002  0.49403740     0.11520
H1337       H  0.70181198  0.84654485  0.49380934     0.11520
H1338       H  0.79863552  0.84655654  0.00609680     0.11520
C1339       C  0.77661098  0.60952743  0.00419833    -0.14620
C1340       C  0.74956307  0.59340268  0.49997940     0.07530
C1341       C  0.72241552  0.60955985  0.49587134    -0.14620
C1342       C  0.72250275  0.64124292  0.49577031    -0.14620
C1343       C  0.74963024  0.65716966  0.50008341     0.07530
C1344       C  0.77658615  0.64118512  0.00439829    -0.14620
H1345       H  0.79787427  0.59777534  0.00750105     0.11520
H1346       H  0.70115200  0.59773836  0.49255291     0.11520
H1347       H  0.70142070  0.65334386  0.49246049     0.11520
H1348       H  0.79769351  0.65330548  0.00774610     0.11520
C1349       C  0.77468202  0.51149500  0.35885168    -0.14620
C1350       C  0.75008974  0.99921327  0.34290634     0.07530
C1351       C  0.72547219  0.98709033  0.35886958    -0.14620
C1352       C  0.72524516  0.98764399  0.39055095    -0.14620
C1353       C  0.75004216  0.99955658  0.40667155     0.07530
C1354       C  0.77487503  0.51126566  0.39052850    -0.14620
H1355       H  0.79385498  0.52092860  0.34676148     0.11520
H1356       H  0.70625365  0.97767877  0.34679931     0.11520
H1357       H  0.70587233  0.97839889  0.40244864     0.11520
H1358       H  0.79420816  0.52067764  0.40239823     0.11520
C1359       C  0.77352969  0.51447575  0.14100438    -0.14620
C1360       C  0.74974922  0.00083019  0.15701838     0.07530
C1361       C  0.72595825  0.98699538  0.14111088    -0.14620
C1362       C  0.72570616  0.98719277  0.10943370    -0.14620
C1363       C  0.74975342  0.00039220  0.09326733     0.07530
C1364       C  0.77377506  0.51385483  0.10932587    -0.14620
H1365       H  0.79212779  0.52510931  0.15303236     0.11520
H1366       H  0.70742538  0.97638860  0.15323054     0.11520
H1367       H  0.70699601  0.97658098  0.09757316     0.11520
H1368       H  0.79251026  0.52427094  0.09737062     0.11520
C1369       C  0.51174856  0.77456384  0.39052032    -0.14620
C1370       C  0.99983520  0.74981818  0.40666079     0.07530
C1371       C  0.98779751  0.72509424  0.39053479    -0.14620
C1372       C  0.98731389  0.72531787  0.35885461    -0.14620
C1373       C  0.99962376  0.74985303  0.34290579     0.07530
C1374       C  0.51202650  0.77436943  0.35885133    -0.14620
H1375       H  0.52123995  0.79385842  0.40238463     0.11520
H1376       H  0.97838126  0.70579779  0.40241923     0.11520
H1377       H  0.97775886  0.70618082  0.34677264     0.11520
H1378       H  0.52155435  0.79350033  0.34676952     0.11520
C1379       C  0.99371670  0.77692523  0.10955049    -0.14620
C1380       C  0.00004232  0.75021483  0.09335705     0.07530
C1381       C  0.50649882  0.72353153  0.10953369    -0.14620
C1382       C  0.50684835  0.72364004  0.14120550    -0.14620
C1383       C  0.00028410  0.75026034  0.15713732     0.07530
C1384       C  0.99359510  0.77686029  0.14123128    -0.14620
H1385       H  0.98860621  0.79780490  0.09775148     0.11520
H1386       H  0.51150568  0.70262165  0.09772594     0.11520
H1387       H  0.51195653  0.70291235  0.15329770     0.11520
H1388       H  0.98849553  0.79758424  0.15334925     0.11520
C1389       C  0.60943834  0.98852833  0.22497349    -0.14620
C1390       C  0.59328711  0.00057212  0.24961546     0.07530
C1391       C  0.60939907  0.51287850  0.27422515    -0.14620
C1392       C  0.64107324  0.51345556  0.27401751    -0.14620
C1393       C  0.65704843  0.00098047  0.24961276     0.07530
C1394       C  0.64111724  0.98833714  0.22519363    -0.14620
H1395       H  0.59757706  0.97881336  0.20578967     0.11520
H1396       H  0.59749941  0.52238695  0.29345245     0.11520
H1397       H  0.65312861  0.52314126  0.29310572     0.11520
H1398       H  0.65322149  0.97863226  0.20618145     0.11520
C1399       C  0.89116589  0.97370351  0.24078776    -0.14620
C1400       C  0.90709836  0.99942458  0.25049403     0.07530
C1401       C  0.89116748  0.52506299  0.26016083    -0.14620
C1402       C  0.85950490  0.52514294  0.25977700    -0.14620
C1403       C  0.84333142  0.99930842  0.25035099     0.07530
C1404       C  0.85947238  0.97349663  0.24105043    -0.14620
H1405       H  0.90327495  0.95373044  0.23328986     0.11520
H1406       H  0.90325250  0.54511631  0.26761259     0.11520
H1407       H  0.84767559  0.54531741  0.26714728     0.11520
H1408       H  0.84760796  0.95333329  0.23358516     0.11520
C1409       C  0.97505789  0.89109756  0.23902374    -0.14620
C1410       C  0.49986994  0.90703026  0.25087602     0.07530
C1411       C  0.52466745  0.89107256  0.26256204    -0.14620
C1412       C  0.52485538  0.85940060  0.26199463    -0.14620
C1413       C  0.99985693  0.84328804  0.25050060     0.07530
C1414       C  0.97484566  0.85942590  0.23923201    -0.14620
H1415       H  0.95574331  0.90319351  0.22993389     0.11520
H1416       H  0.54404460  0.90314033  0.27164816     0.11520
H1417       H  0.54436239  0.84750197  0.27090449     0.11520
H1418       H  0.95535559  0.84755613  0.23014555     0.11520
C1419       C  0.97249298  0.60865515  0.24941834    -0.14620
C1420       C  0.99990750  0.59276613  0.24911190     0.07530
C1421       C  0.52736144  0.60869719  0.24905016    -0.14620
C1422       C  0.52743226  0.64037433  0.24926371    -0.14620
C1423       C  0.99998475  0.65655523  0.24952974     0.07530
C1424       C  0.97250226  0.64032791  0.24958750    -0.14620
H1425       H  0.95112654  0.59653153  0.24958480     0.11520
H1426       H  0.54870137  0.59660102  0.24892616     0.11520
H1427       H  0.54896481  0.65216772  0.24922241     0.11520
H1428       H  0.95099052  0.65208373  0.24983214     0.11520
O1429       O  0.99970927  0.54572776  0.77476145    -0.74210
O1430       O  0.50098348  0.95481081  0.77560219    -0.75200
O1431       O  0.54562653  0.00114911  0.77493332    -0.63810
O1432       O  0.95472049  0.49996078  0.77540787    -0.72230
O1433       O  0.95432397  0.49948297  0.72503970    -0.71780
O1434       O  0.54528344  0.99912053  0.72468846    -0.63030
O1435       O  0.49914379  0.95414572  0.72527676    -0.75540
O1436       O  0.00006358  0.54504706  0.72439440    -0.74320
Cu1437     Cu  0.00025067  0.00039403  0.77694414     1.04560
Cu1438     Cu  0.49972049  0.49946448  0.72307914     1.04330
C1439       C  0.99987816  0.55961391  0.74941240     0.91980
C1440       C  0.50003074  0.94022951  0.75059967     0.91120
C1441       C  0.55982893  0.00025084  0.74973350     0.83270
C1442       C  0.94028172  0.49961792  0.75031545     0.89540
O1443       O  0.97487194  0.70446908  0.74916703    -0.74210
O1444       O  0.97476068  0.79538858  0.75030204    -0.75200
O1445       O  0.97494521  0.75070893  0.70439608    -0.63810
O1446       O  0.97460793  0.74902571  0.79530532    -0.72230
O1447       O  0.52493600  0.75068687  0.79558939    -0.71780
O1448       O  0.52529255  0.74961278  0.70468109    -0.63030
O1449       O  0.52504513  0.79554994  0.75006450    -0.75540
O1450       O  0.52509604  0.70459954  0.75044981    -0.74320
Cu1451     Cu  0.97303718  0.74990016  0.74979837     1.04560
Cu1452     Cu  0.52685445  0.75010649  0.75018927     1.04330
C1453       C  0.99999284  0.69011027  0.74973375     0.91980
C1454       C  0.99988541  0.80983995  0.75026775     0.91120
C1455       C  0.00018254  0.75020825  0.69030329     0.83270
C1456       C  0.99971062  0.74983061  0.80970110     0.89540
O1457       O  0.74892047  0.97446422  0.79510406    -0.74210
O1458       O  0.74944828  0.97528844  0.70417924    -0.75200
O1459       O  0.79510490  0.97449586  0.74973150    -0.63810
O1460       O  0.70411841  0.97533152  0.74893887    -0.72230
O1461       O  0.70491053  0.52564519  0.75082010    -0.71780
O1462       O  0.79579218  0.52475131  0.75036411    -0.63030
O1463       O  0.75053974  0.52562365  0.70482255    -0.75540
O1464       O  0.75096529  0.52477151  0.79576448    -0.74320
Cu1465     Cu  0.74942741  0.97312439  0.74950677     1.04560
Cu1466     Cu  0.75052670  0.52695998  0.75042501     1.04330
C1467       C  0.74995796  0.99945800  0.80969061     0.91980
C1468       C  0.74994942  0.00060994  0.69024128     0.91120
C1469       C  0.80983902  0.99948080  0.75012366     0.83270
C1470       C  0.69025997  0.00066735  0.74981122     0.89540
O1471       O  0.72450564  0.54513929  0.99978276    -0.74210
O1472       O  0.72500099  0.95433837  0.49992468    -0.75200
O1473       O  0.72472885  0.99962802  0.54540011    -0.63810
O1474       O  0.72478871  0.49929530  0.95443968    -0.72230
O1475       O  0.77505302  0.00020579  0.95458193    -0.71780
O1476       O  0.77500112  0.00065156  0.54553508    -0.63030
O1477       O  0.77521923  0.95463882  0.00023418    -0.75540
O1478       O  0.77474214  0.54555938  0.00002592    -0.74320
Cu1479     Cu  0.72304324  0.99967800  0.49989266     1.04560
Cu1480     Cu  0.77673873  0.00022145  0.00008747     1.04330
C1481       C  0.74954436  0.55976539  0.99991561     0.91980
C1482       C  0.75017935  0.94001193  0.00007490     0.91120
C1483       C  0.74984014  0.00022508  0.55983355     0.83270
C1484       C  0.74994775  0.99967799  0.94013177     0.89540
O1485       O  0.00094206  0.72501866  0.54548258    -0.74210
O1486       O  0.49862620  0.72479902  0.95457153    -0.75200
O1487       O  0.54527407  0.72487221  0.99903963    -0.63810
O1488       O  0.95442246  0.72492822  0.50126904    -0.72230
O1489       O  0.95451028  0.77517560  0.99856057    -0.71780
O1490       O  0.54541162  0.77506947  0.00094159    -0.63030
O1491       O  0.00112270  0.77500558  0.95443204    -0.75540
O1492       O  0.99896494  0.77521198  0.54533983    -0.74320
Cu1493     Cu  0.49979579  0.72313911  0.00008075     1.04560
Cu1494     Cu  0.99998378  0.77687391  0.99982829     1.04330
C1495       C  0.99997853  0.75015713  0.55982626     0.91980
C1496       C  0.49985445  0.74986242  0.94012160     0.91120
C1497       C  0.55975900  0.74995902  0.00002284     0.83270
C1498       C  0.94019672  0.75004806  0.99989021     0.89540
O1499       O  0.74954283  0.70458234  0.52523145    -0.74210
O1500       O  0.75092575  0.79546909  0.52514953    -0.75200
O1501       O  0.70465525  0.75078217  0.52534528    -0.63810
O1502       O  0.79553663  0.74931777  0.52499013    -0.72230
O1503       O  0.79523864  0.75038085  0.97473476    -0.71780
O1504       O  0.70430656  0.74924226  0.97499251    -0.63030
O1505       O  0.74927220  0.79528436  0.97479864    -0.75540
O1506       O  0.74994368  0.70439201  0.97486479    -0.74320
Cu1507     Cu  0.75015669  0.75003759  0.52694707     1.04560
Cu1508     Cu  0.74970237  0.74982628  0.97307519     1.04330
C1509       C  0.74960965  0.69021338  0.00006493     0.91980
C1510       C  0.75015369  0.80955170  0.99995789     0.91120
C1511       C  0.69022354  0.74999514  0.00023240     0.83270
C1512       C  0.80975226  0.74977041  0.99981299     0.89540
C1513       C  0.85939686  0.75866393  0.97377094    -0.14620
C1514       C  0.84324753  0.74979112  0.99976093     0.07530
C1515       C  0.85946895  0.74114719  0.52578844    -0.14620
C1516       C  0.89113595  0.74090627  0.52569076    -0.14620
C1517       C  0.90701314  0.75004142  0.99985279     0.07530
C1518       C  0.89107703  0.75911363  0.97395483    -0.14620
H1519       H  0.84754847  0.76560079  0.95343726     0.11520
H1520       H  0.84763919  0.73414291  0.54610771     0.11520
H1521       H  0.90322429  0.73388125  0.54586572     0.11520
H1522       H  0.90317172  0.76618644  0.95380368     0.11520
C1523       C  0.60944634  0.72312560  0.99427088    -0.14620
C1524       C  0.59329078  0.74994715  0.00012832     0.07530
C1525       C  0.60955541  0.77677181  0.50610875    -0.14620
C1526       C  0.64122829  0.77671740  0.50642585    -0.14620
C1527       C  0.65706553  0.74996145  0.00034165     0.07530
C1528       C  0.64112214  0.72321365  0.99415142    -0.14620
H1529       H  0.59762450  0.70213092  0.98954282     0.11520
H1530       H  0.59777338  0.79776575  0.51074466     0.11520
H1531       H  0.65334837  0.79756133  0.51114376     0.11520
H1532       H  0.65320938  0.70239458  0.98943441     0.11520
C1533       C  0.77752090  0.89042553  0.50333478    -0.14620
C1534       C  0.75026317  0.90647189  0.00002536     0.07530
C1535       C  0.72299321  0.89023023  0.99665908    -0.14620
C1536       C  0.72301964  0.85856974  0.99647331    -0.14620
C1537       C  0.75022391  0.84269957  0.99993400     0.07530
C1538       C  0.77744881  0.85874489  0.50343834    -0.14620
H1539       H  0.79887489  0.90224906  0.50599437     0.11520
H1540       H  0.70163080  0.90197079  0.99402879     0.11520
H1541       H  0.70182091  0.84643906  0.99379950     0.11520
H1542       H  0.79862697  0.84665680  0.50610383     0.11520
C1543       C  0.77672694  0.60962503  0.50416771    -0.14620
C1544       C  0.74945471  0.59329938  0.99998722     0.07530
C1545       C  0.72230597  0.60945076  0.99586042    -0.14620
C1546       C  0.72238727  0.64113520  0.99575964    -0.14620
C1547       C  0.74950959  0.65706668  0.00009392     0.07530
C1548       C  0.77670851  0.64128393  0.50436581    -0.14620
H1549       H  0.79798985  0.59786782  0.50745454     0.11520
H1550       H  0.70104803  0.59762390  0.99252493     0.11520
H1551       H  0.70130601  0.65323282  0.99243287     0.11520
H1552       H  0.79782018  0.65340122  0.50769732     0.11520
C1553       C  0.77464906  0.51145840  0.85886439    -0.14620
C1554       C  0.75006502  0.99917808  0.84290571     0.07530
C1555       C  0.72544644  0.98703918  0.85885578    -0.14620
C1556       C  0.72521129  0.98757325  0.89053761    -0.14620
C1557       C  0.75000150  0.99948192  0.90667122     0.07530
C1558       C  0.77483419  0.51120964  0.89054089    -0.14620
H1559       H  0.79382255  0.52090452  0.84678476     0.11520
H1560       H  0.70623382  0.97762899  0.84677503     0.11520
H1561       H  0.70583815  0.97831573  0.90242514     0.11520
H1562       H  0.79416171  0.52062055  0.90242061     0.11520
C1563       C  0.77356336  0.51451407  0.64101859    -0.14620
C1564       C  0.74977478  0.00086531  0.65701832     0.07530
C1565       C  0.72598550  0.98704460  0.64109658    -0.14620
C1566       C  0.72574163  0.98726195  0.60941967    -0.14620
C1567       C  0.74979518  0.00046743  0.59326721     0.07530
C1568       C  0.77381684  0.51391282  0.60933958    -0.14620
H1569       H  0.79216053  0.52513636  0.65305791     0.11520
H1570       H  0.70744690  0.97643492  0.65320496     0.11520
H1571       H  0.70703209  0.97666142  0.59754806     0.11520
H1572       H  0.79255743  0.52433154  0.59739506     0.11520
C1573       C  0.51171618  0.77456084  0.89052593    -0.14620
C1574       C  0.99979590  0.74981506  0.90666149     0.07530
C1575       C  0.98776720  0.72509026  0.89053050    -0.14620
C1576       C  0.98729697  0.72531398  0.85885017    -0.14620
C1577       C  0.99961184  0.74984990  0.84290625     0.07530
C1578       C  0.51200774  0.77436646  0.85885691    -0.14620
H1579       H  0.52120211  0.79385561  0.90239432     0.11520
H1580       H  0.97834704  0.70579333  0.90241106     0.11520
H1581       H  0.97774698  0.70617689  0.84676430     0.11520
H1582       H  0.52153926  0.79349802  0.84677904     0.11520
C1583       C  0.99374561  0.77692566  0.60954861    -0.14620
C1584       C  0.00007783  0.75021614  0.59335643     0.07530
C1585       C  0.50652544  0.72353145  0.60953444    -0.14620
C1586       C  0.50686258  0.72363853  0.64120645    -0.14620
C1587       C  0.00029418  0.75025866  0.65713697     0.07530
C1588       C  0.99361146  0.77685928  0.64122939    -0.14620
H1589       H  0.98864021  0.79780594  0.59774848     0.11520
H1590       H  0.51153582  0.70262186  0.59772767     0.11520
H1591       H  0.51196597  0.70291029  0.65329974     0.11520
H1592       H  0.98850865  0.79758309  0.65334623     0.11520
C1593       C  0.60943688  0.98852716  0.72497140    -0.14620
C1594       C  0.59328690  0.00057168  0.74961383     0.07530
C1595       C  0.60940008  0.51287860  0.77422242    -0.14620
C1596       C  0.64107425  0.51345607  0.77401281    -0.14620
C1597       C  0.65704823  0.00098071  0.74960728     0.07530
C1598       C  0.64111573  0.98833617  0.72518970    -0.14620
H1599       H  0.59757462  0.97881154  0.70578851     0.11520
H1600       H  0.59750138  0.52238734  0.79345017     0.11520
H1601       H  0.65313059  0.52314219  0.79310021     0.11520
H1602       H  0.65321891  0.97863068  0.70617716     0.11520
C1603       C  0.89116554  0.97370419  0.74078821    -0.14620
C1604       C  0.90709834  0.99942498  0.75049465     0.07530
C1605       C  0.89116785  0.52506297  0.76016312    -0.14620
C1606       C  0.85950527  0.52514257  0.75978152    -0.14620
C1607       C  0.84333137  0.99930811  0.75035600     0.07530
C1608       C  0.85947206  0.97349700  0.74105288    -0.14620
H1609       H  0.90327433  0.95373148  0.73328890     0.11520
H1610       H  0.90325313  0.54511616  0.76761480     0.11520
H1611       H  0.84767635  0.54531682  0.76715301     0.11520
H1612       H  0.84760746  0.95333385  0.73358736     0.11520
C1613       C  0.97505792  0.89109775  0.73902351    -0.14620
C1614       C  0.49986989  0.90703045  0.75087595     0.07530
C1615       C  0.52466738  0.89107275  0.76256200    -0.14620
C1616       C  0.52485534  0.85940078  0.76199451    -0.14620
C1617       C  0.99985695  0.84328818  0.75050030     0.07530
C1618       C  0.97484573  0.85942609  0.73923164    -0.14620
H1619       H  0.95574335  0.90319371  0.72993364     0.11520
H1620       H  0.54404449  0.90314051  0.77164821     0.11520
H1621       H  0.54436236  0.84750219  0.77090441     0.11520
H1622       H  0.95535569  0.84755637  0.73014507     0.11520
C1623       C  0.97249294  0.60865529  0.74941840    -0.14620
C1624       C  0.99990747  0.59276628  0.74911195     0.07530
C1625       C  0.52736142  0.60869734  0.74905041    -0.14620
C1626       C  0.52743225  0.64037447  0.74926417    -0.14620
C1627       C  0.99998471  0.65655534  0.74953015     0.07530
C1628       C  0.97250222  0.64032805  0.74958769    -0.14620
H1629       H  0.95112651  0.59653167  0.74958475     0.11520
H1630       H  0.54870135  0.59660116  0.74892642     0.11520
H1631       H  0.54896479  0.65216786  0.74922295     0.11520
H1632       H  0.95099049  0.65208387  0.74983235     0.11520
loop_ 
_geom_bond_atom_site_label_1 
_geom_bond_atom_site_label_2 
_geom_bond_distance 
_geom_bond_site_symmetry_2 
_ccdc_geom_bond_type 
O1           C11   1.276       .  A
O1         Cu417   2.004       .  S
O2           C12   1.278       .  A
O2         Cu825   2.013       .  S
O3           C13   1.278       .  A
O3         Cu825   2.005       .  S
O4           C14   1.277       .  A
O4         Cu417   2.011   1_565  S
O5           C14   1.277       .  A
O5         Cu826   2.006       .  S
O6           C13   1.279       .  A
O6         Cu418   2.012   1_455  S
O7           C12   1.276   1_655  A
O7         Cu418   2.003       .  S
O8           C11   1.277       .  A
O8         Cu826   2.013   1_545  S
Cu9         O409   2.004       .  S
Cu9         O818   2.013       .  S
Cu9         O819   2.005       .  S
Cu9         O412   2.011       .  S
Cu9       Cu1234   2.378       .  S
Cu10        O821   2.006       .  S
Cu10        O414   2.012   1_655  S
Cu10        O415   2.003       .  S
Cu10        O824   2.013   1_665  S
Cu10      Cu1233   2.378   1_665  S
C11         C196   1.463       .  S
C12         C186   1.466   1_455  S
C13         C166   1.477       .  S
C14         C584   1.465       .  S
O15          C25   1.278       .  A
O15         Cu23   2.007       .  S
O16          C26   1.278       .  A
O16         Cu23   2.009       .  S
O17          C27   1.276       .  A
O17         Cu23   2.006       .  S
O18          C28   1.277       .  A
O18         Cu23   2.010       .  S
O19         C844   1.277   1_455  A
O19         Cu24   2.006       .  S
O20         C843   1.277       .  A
O20         Cu24   2.010       .  S
O21         C842   1.278   1_455  A
O21         Cu24   2.008       .  S
O22         C841   1.279   1_455  A
O22         Cu24   2.010       .  S
Cu23       Cu840   2.375       .  S
Cu24       Cu839   2.375   1_455  S
C25         O838   1.279       .  A
C25         C199   1.481       .  S
C26         O837   1.278       .  A
C26         C189   1.477       .  S
C27         O836   1.277       .  A
C27         C159   1.464       .  S
C28         O835   1.277       .  A
C28         C149   1.465       .  S
O29          C39   1.278       .  A
O29         Cu37   2.013       .  S
O30          C40   1.276       .  A
O30         Cu37   2.003       .  S
O31          C41   1.279       .  A
O31         Cu37   2.017       .  S
O32          C42   1.276       .  A
O32         Cu37   2.002       .  S
O33         C450   1.278       .  A
O33         Cu38   2.014       .  S
O34         C449   1.277   1_545  A
O34         Cu38   2.000       .  S
O35         C448   1.278       .  A
O35         Cu38   2.013       .  S
O36         C447   1.276   1_545  A
O36         Cu38   2.003       .  S
Cu37       Cu446   2.377       .  S
Cu38       Cu445   2.377   1_545  S
C39         O444   1.276       .  A
C39         C126   1.466       .  S
C40         O443   1.278       .  A
C40         C136   1.466       .  S
C41         O442   1.277       .  A
C41         C179   1.478       .  S
C42         O441   1.278       .  A
C42         C169   1.466       .  S
O43          C53   1.279       .  A
O43        Cu663   2.013   1_545  S
O44         C258   1.278   1_556  A
O44         Cu51   2.003       .  S
O45          C55   1.278       .  A
O45         Cu51   2.010   1_554  S
O46         C464   1.278       .  A
O46        Cu663   2.008       .  S
O47          C56   1.278       .  A
O47         Cu52   2.010       .  S
O48          C55   1.278       .  A
O48        Cu256   2.007       .  S
O49          C54   1.279       .  A
O49         Cu52   2.013       .  S
O50          C53   1.278       .  A
O50        Cu460   2.003       .  S
Cu51        O655   2.013       .  S
Cu51        O658   2.008       .  S
Cu51       Cu256   2.372   1_556  S
Cu52        O252   2.007       .  S
Cu52        O458   2.003       .  S
Cu52       Cu255   2.372       .  S
C53         C116   1.480       .  S
C54         O248   1.278       .  A
C54         C106   1.481       .  S
C55         C139   1.476       .  S
C56         O454   1.278       .  A
C56         C129   1.477       .  S
O57          C67   1.278       .  A
O57       Cu1085   2.006       .  S
O58          C68   1.278       .  A
O58         Cu65   2.010       .  S
O59          C69   1.278       .  A
O59         Cu65   2.009   1_455  S
O60         C274   1.277   1_554  A
O60       Cu1085   2.007       .  S
O61          C70   1.277       .  A
O61         Cu66   2.009       .  S
O62          C69   1.278       .  A
O62        Cu882   2.007       .  S
O63         C884   1.278       .  A
O63         Cu66   2.006       .  S
O64          C67   1.279       .  A
O64        Cu270   2.011   1_554  S
Cu65       O1077   2.006   1_655  S
Cu65       O1080   2.007       .  S
Cu65       Cu882   2.372   1_655  S
Cu66        O878   2.007       .  S
Cu66        O268   2.011       .  S
Cu66       Cu881   2.372       .  S
C67         C156   1.480       .  S
C68         O879   1.278   1_655  A
C68         C962   1.477       .  S
C69          C96   1.480       .  S
C70         O264   1.277       .  A
C70          C89   1.465       .  S
O71         C285   1.277       .  A
O71         Cu79   2.008       .  S
O72         C286   1.277   1_554  A
O72         Cu79   2.007       .  S
O73         C287   1.277       .  A
O73         Cu79   2.010       .  S
O74         C288   1.278   1_554  A
O74         Cu79   2.005       .  S
O75          C84   1.279       .  A
O75         Cu80   2.011       .  S
O76          C83   1.276       .  A
O76         Cu80   2.006       .  S
O77          C82   1.277       .  A
O77         Cu80   2.008       .  S
O78          C81   1.277       .  A
O78         Cu80   2.007       .  S
Cu79       Cu284   2.378   1_554  S
Cu80       Cu283   2.378       .  S
C81         O275   1.277       .  A
C81         C119   1.463       .  S
C82         O276   1.277       .  A
C82         C109   1.463       .  S
C83         O277   1.277       .  A
C83          C99   1.463       .  S
C84         O278   1.278       .  A
C84          C86   1.478       .  S
C85          C86   1.406       .  A
C85          C90   1.398       .  A
C85          H91   1.083       .  S
C86         C291   1.407       .  A
C87          C88   1.398       .  A
C87         C290   1.407   1_554  A
C87          H92   1.083       .  S
C88         C293   1.400   1_554  A
C88          H93   1.083       .  S
C89          C90   1.401       .  A
C89         C292   1.400       .  A
C90          H94   1.083       .  S
C95          C96   1.407       .  A
C95         C100   1.398       .  A
C95         H101   1.083       .  S
C96         C301   1.407       .  A
C97          C98   1.398       .  A
C97         C300   1.407       .  A
C97         H102   1.083       .  S
C98         C303   1.400       .  A
C98         H103   1.083       .  S
C99         C100   1.400       .  A
C99         C302   1.400       .  A
C100        H104   1.084       .  S
C105        C110   1.399       .  A
C105        C310   1.407       .  A
C105        H111   1.083       .  S
C106        C107   1.408       .  A
C106        C309   1.407       .  A
C107        C108   1.398       .  A
C107        H112   1.083       .  S
C108        C109   1.400       .  A
C108        H113   1.084       .  S
C109        C314   1.400       .  A
C110        C313   1.400   1_554  A
C110        H114   1.083       .  S
C115        C120   1.397       .  A
C115        C320   1.407   1_554  A
C115        H121   1.083       .  S
C116        C117   1.407       .  A
C116        C319   1.407       .  A
C117        C118   1.399       .  A
C117        H122   1.083       .  S
C118        C119   1.400       .  A
C118        H123   1.084       .  S
C119        C324   1.399       .  A
C120        C323   1.399       .  A
C120        H124   1.083       .  S
C125        C130   1.398       .  A
C125        C534   1.401   1_545  A
C125        H131   1.083       .  S
C126        C127   1.401       .  A
C126        C533   1.401       .  A
C127        C128   1.398       .  A
C127        H132   1.083       .  S
C128        C129   1.406       .  A
C128        H133   1.083       .  S
C129        C538   1.406       .  A
C130        C537   1.406   1_545  A
C130        H134   1.083       .  S
C135        C140   1.398       .  A
C135        C544   1.401       .  A
C135        H141   1.083       .  S
C136        C137   1.402       .  A
C136        C543   1.401       .  A
C137        C138   1.398       .  A
C137        H142   1.084       .  S
C138        C139   1.405       .  A
C138        H143   1.083       .  S
C139        C548   1.406       .  A
C140        C547   1.406       .  A
C140        H144   1.083       .  S
C145        C150   1.398       .  A
C145        C962   1.406   1_455  A
C145        H151   1.083       .  S
C146        C884   1.477       .  S
C146        C147   1.406       .  A
C146        C961   1.406       .  A
C147        C148   1.398       .  A
C147        H152   1.083       .  S
C148        C149   1.401       .  A
C148        H153   1.083       .  S
C149        C966   1.401       .  A
C150        C965   1.401   1_455  A
C150        H154   1.083       .  S
C155        C156   1.407       .  A
C155        C160   1.398       .  A
C155        H161   1.083       .  S
C156        C973   1.407       .  A
C157        C158   1.398       .  A
C157        C972   1.407       .  A
C157        H162   1.083       .  S
C158        C975   1.400       .  A
C158        H163   1.084       .  S
C159        C160   1.400       .  A
C159        C974   1.400       .  A
C160        H164   1.083       .  S
C165        C166   1.405       .  A
C165        C170   1.398       .  A
C165        H171   1.083       .  S
C166        C575   1.406       .  A
C167        C168   1.398       .  A
C167        C574   1.406       .  A
C167        H172   1.083       .  S
C168        C577   1.401       .  A
C168        H173   1.083       .  S
C169        C170   1.401       .  A
C169        C576   1.401       .  A
C170        H174   1.084       .  S
C175        C176   1.401       .  A
C175        C180   1.399       .  A
C175        H181   1.084       .  S
C176        C422   1.465       .  S
C176        C585   1.400       .  A
C177        C178   1.398       .  A
C177        C584   1.400   1_545  A
C177        H182   1.083       .  S
C178        C587   1.407   1_545  A
C178        H183   1.083       .  S
C179        C180   1.406       .  A
C179        C586   1.407       .  A
C180        H184   1.083       .  S
C185        C190   1.398       .  A
C185       C1002   1.401       .  A
C185        H191   1.084       .  S
C186        C187   1.401   1_655  A
C186       C1001   1.401       .  A
C187        C188   1.398       .  A
C187        H192   1.083       .  S
C188       C1005   1.406   1_455  A
C188        H193   1.083       .  S
C189        C190   1.406       .  A
C189       C1004   1.406       .  A
C190        H194   1.083       .  S
C195        C196   1.400       .  A
C195        C200   1.398       .  A
C195        H201   1.083       .  S
C196       C1013   1.400       .  A
C197        C198   1.398       .  A
C197       C1012   1.400   1_455  A
C197        H202   1.084       .  S
C198       C1015   1.407   1_455  A
C198        H203   1.083       .  S
C199        C200   1.408       .  A
C199       C1014   1.407       .  A
C200        H204   1.083       .  S
O205        C215   1.276       .  A
O205       Cu621   2.004       .  S
O206        C216   1.278       .  A
O206      Cu1029   2.013       .  S
O207        C217   1.278       .  A
O207      Cu1029   2.005       .  S
O208        C218   1.277       .  A
O208       Cu621   2.011   1_565  S
O209        C218   1.277       .  A
O209      Cu1030   2.006       .  S
O210        C217   1.279       .  A
O210       Cu622   2.012   1_455  S
O211        C216   1.276   1_655  A
O211       Cu622   2.003       .  S
O212        C215   1.277       .  A
O212      Cu1030   2.013   1_545  S
Cu213       O613   2.004       .  S
Cu213      O1022   2.013       .  S
Cu213      O1023   2.005       .  S
Cu213       O616   2.011       .  S
Cu213     Cu1438   2.378       .  S
Cu214      O1025   2.006       .  S
Cu214       O618   2.012   1_655  S
Cu214       O619   2.003       .  S
Cu214      O1028   2.013   1_665  S
Cu214     Cu1437   2.378   1_665  S
C215        C400   1.463       .  S
C216        C390   1.466   1_455  S
C217        C370   1.477       .  S
C218        C788   1.465       .  S
O219        C229   1.278       .  A
O219       Cu227   2.007       .  S
O220        C230   1.278       .  A
O220       Cu227   2.009       .  S
O221        C231   1.276       .  A
O221       Cu227   2.006       .  S
O222        C232   1.277       .  A
O222       Cu227   2.010       .  S
O223       C1048   1.277   1_455  A
O223       Cu228   2.006       .  S
O224       C1047   1.277       .  A
O224       Cu228   2.010       .  S
O225       C1046   1.278   1_455  A
O225       Cu228   2.008       .  S
O226       C1045   1.279   1_455  A
O226       Cu228   2.010       .  S
Cu227     Cu1044   2.375       .  S
Cu228     Cu1043   2.375   1_455  S
C229       O1042   1.279       .  A
C229        C403   1.481       .  S
C230       O1041   1.278       .  A
C230        C393   1.477       .  S
C231       O1040   1.277       .  A
C231        C363   1.464       .  S
C232       O1039   1.277       .  A
C232        C353   1.465       .  S
O233        C243   1.278       .  A
O233       Cu241   2.013       .  S
O234        C244   1.276       .  A
O234       Cu241   2.003       .  S
O235        C245   1.279       .  A
O235       Cu241   2.017       .  S
O236        C246   1.276       .  A
O236       Cu241   2.002       .  S
O237        C654   1.278       .  A
O237       Cu242   2.014       .  S
O238        C653   1.277   1_545  A
O238       Cu242   2.000       .  S
O239        C652   1.278       .  A
O239       Cu242   2.013       .  S
O240        C651   1.276   1_545  A
O240       Cu242   2.003       .  S
Cu241      Cu650   2.377       .  S
Cu242      Cu649   2.377   1_545  S
C243        O648   1.276       .  A
C243        C330   1.466       .  S
C244        O647   1.278       .  A
C244        C340   1.466       .  S
C245        O646   1.277       .  A
C245        C383   1.478       .  S
C246        O645   1.278       .  A
C246        C373   1.466       .  S
O247        C257   1.279       .  A
O247       Cu459   2.013   1_545  S
O248       Cu255   2.003       .  S
O249        C259   1.278       .  A
O249       Cu255   2.010       .  S
O250        C668   1.278       .  A
O250       Cu459   2.008       .  S
O251        C260   1.278       .  A
O251       Cu256   2.010   1_556  S
O252        C259   1.278       .  A
O253        C258   1.279       .  A
O253       Cu256   2.013       .  S
O254        C257   1.278   1_554  A
O254       Cu664   2.003       .  S
Cu255       O451   2.013       .  S
Cu255       O454   2.008       .  S
Cu256       O662   2.003       .  S
C257        C320   1.480       .  S
C258        C310   1.481       .  S
C259        C343   1.476       .  S
C260        O658   1.278       .  A
C260        C333   1.477       .  S
O261        C271   1.278       .  A
O261       Cu881   2.006       .  S
O262        C272   1.278       .  A
O262       Cu269   2.011   1_556  S
O263        C273   1.278   1_556  A
O263       Cu269   2.009   1_456  S
O264       Cu881   2.007       .  S
O265        C274   1.277       .  A
O265       Cu270   2.009       .  S
O266        C273   1.278       .  A
O266      Cu1086   2.007   1_454  S
O267       C1088   1.278       .  A
O267       Cu270   2.006       .  S
O268        C271   1.279       .  A
Cu269       O873   2.006   1_655  S
Cu269       O876   2.007       .  S
Cu269     Cu1086   2.372   1_554  S
Cu270      O1082   2.007   1_556  S
Cu270     Cu1085   2.372   1_556  S
C271        C360   1.480       .  S
C272       O1083   1.278   1_655  A
C272       C1166   1.477       .  S
C273        C300   1.480       .  S
C274        C293   1.465       .  S
O275       Cu283   2.008       .  S
O276       Cu283   2.007       .  S
O277       Cu283   2.010       .  S
O278       Cu283   2.005       .  S
O279        C288   1.279       .  A
O279       Cu284   2.011       .  S
O280        C287   1.276   1_556  A
O280       Cu284   2.006       .  S
O281        C286   1.277       .  A
O281       Cu284   2.008       .  S
O282        C285   1.277   1_556  A
O282       Cu284   2.007       .  S
C285        C323   1.463       .  S
C286        C313   1.463       .  S
C287        C303   1.463       .  S
C288        C290   1.478       .  S
C289        C290   1.406       .  A
C289        C294   1.398       .  A
C289        H295   1.083       .  S
C291        C292   1.398       .  A
C291        H296   1.083       .  S
C292        H297   1.083       .  S
C293        C294   1.401       .  A
C294        H298   1.083       .  S
C299        C300   1.407   1_556  A
C299        C304   1.398       .  A
C299        H305   1.083       .  S
C301        C302   1.398       .  A
C301        H306   1.083       .  S
C302        H307   1.083       .  S
C303        C304   1.400   1_554  A
C304        H308   1.084       .  S
C309        C314   1.398       .  A
C309        H315   1.083       .  S
C310        C311   1.408   1_554  A
C311        C312   1.398       .  A
C311        H316   1.083       .  S
C312        C313   1.400       .  A
C312        H317   1.084       .  S
C314        H318   1.083       .  S
C319        C324   1.398       .  A
C319        H325   1.083       .  S
C320        C321   1.407       .  A
C321        C322   1.399       .  A
C321        H326   1.083       .  S
C322        C323   1.400   1_556  A
C322        H327   1.084       .  S
C324        H328   1.083       .  S
C329        C738   1.401   1_545  A
C329        C334   1.398       .  A
C329        H335   1.083       .  S
C330        C737   1.401       .  A
C330        C331   1.401       .  A
C331        C332   1.398       .  A
C331        H336   1.083       .  S
C332        C333   1.406       .  A
C332        H337   1.083       .  S
C333        C742   1.406       .  A
C334        C741   1.406   1_545  A
C334        H338   1.083       .  S
C339        C748   1.401       .  A
C339        C344   1.398       .  A
C339        H345   1.083       .  S
C340        C747   1.401       .  A
C340        C341   1.402       .  A
C341        C342   1.398       .  A
C341        H346   1.084       .  S
C342        C343   1.405       .  A
C342        H347   1.083       .  S
C343        C752   1.406       .  A
C344        C751   1.406       .  A
C344        H348   1.083       .  S
C349       C1166   1.406   1_455  A
C349        C354   1.398       .  A
C349        H355   1.083       .  S
C350       C1088   1.477       .  S
C350       C1165   1.406       .  A
C350        C351   1.406       .  A
C351        C352   1.398       .  A
C351        H356   1.083       .  S
C352        C353   1.401       .  A
C352        H357   1.083       .  S
C353       C1170   1.401       .  A
C354       C1169   1.401   1_455  A
C354        H358   1.083       .  S
C359        C360   1.407       .  A
C359        C364   1.398       .  A
C359        H365   1.083       .  S
C360       C1177   1.407       .  A
C361       C1176   1.407       .  A
C361        C362   1.398       .  A
C361        H366   1.083       .  S
C362       C1179   1.400       .  A
C362        H367   1.084       .  S
C363       C1178   1.400       .  A
C363        C364   1.400       .  A
C364        H368   1.083       .  S
C369        C370   1.405       .  A
C369        C374   1.398       .  A
C369        H375   1.083       .  S
C370        C779   1.406       .  A
C371        C778   1.406       .  A
C371        C372   1.398       .  A
C371        H376   1.083       .  S
C372        C781   1.401       .  A
C372        H377   1.083       .  S
C373        C780   1.401       .  A
C373        C374   1.401       .  A
C374        H378   1.084       .  S
C379        C380   1.401       .  A
C379        C384   1.399       .  A
C379        H385   1.084       .  S
C380        C626   1.465       .  S
C380        C789   1.400       .  A
C381        C788   1.400   1_545  A
C381        C382   1.398       .  A
C381        H386   1.083       .  S
C382        C791   1.407   1_545  A
C382        H387   1.083       .  S
C383        C790   1.407       .  A
C383        C384   1.406       .  A
C384        H388   1.083       .  S
C389       C1206   1.401       .  A
C389        C394   1.398       .  A
C389        H395   1.084       .  S
C390       C1205   1.401       .  A
C390        C391   1.401   1_655  A
C391        C392   1.398       .  A
C391        H396   1.083       .  S
C392       C1209   1.406   1_455  A
C392        H397   1.083       .  S
C393       C1208   1.406       .  A
C393        C394   1.406       .  A
C394        H398   1.083       .  S
C399        C400   1.400       .  A
C399        C404   1.398       .  A
C399        H405   1.083       .  S
C400       C1217   1.400       .  A
C401       C1216   1.400   1_455  A
C401        C402   1.398       .  A
C401        H406   1.084       .  S
C402       C1219   1.407   1_455  A
C402        H407   1.083       .  S
C403       C1218   1.407       .  A
C403        C404   1.408       .  A
C404        H408   1.083       .  S
O409        C419   1.276       .  A
O410        C420   1.278       .  A
O410      Cu1233   2.013   1_565  S
O411        C421   1.278       .  A
O411      Cu1233   2.005       .  S
O412        C422   1.277       .  A
O413        C422   1.277       .  A
O413      Cu1234   2.006       .  S
O414        C421   1.279   1_565  A
O415        C420   1.276   1_655  A
O416        C419   1.277       .  A
O416      Cu1234   2.013       .  S
Cu417      O1226   2.013   1_545  S
Cu417      O1227   2.005       .  S
Cu417      Cu826   2.378   1_545  S
Cu418      O1229   2.006       .  S
Cu418      O1232   2.013   1_655  S
Cu418      Cu825   2.378   1_655  S
C419        C604   1.463       .  S
C420        C594   1.466   1_455  S
C421        C574   1.477       .  S
O423        C433   1.278       .  A
O423       Cu431   2.007       .  S
O424        C434   1.278       .  A
O424       Cu431   2.009       .  S
O425        C435   1.276       .  A
O425       Cu431   2.006       .  S
O426        C436   1.277       .  A
O426       Cu431   2.010       .  S
O427       C1252   1.277   1_455  A
O427       Cu432   2.006       .  S
O428       C1251   1.277       .  A
O428       Cu432   2.010       .  S
O429       C1250   1.278   1_455  A
O429       Cu432   2.008       .  S
O430       C1249   1.279   1_455  A
O430       Cu432   2.010       .  S
Cu431     Cu1248   2.375       .  S
Cu432     Cu1247   2.375   1_455  S
C433       O1246   1.279       .  A
C433        C607   1.481       .  S
C434       O1245   1.278       .  A
C434        C597   1.477       .  S
C435       O1244   1.277       .  A
C435        C567   1.464       .  S
C436       O1243   1.277       .  A
C436        C557   1.465       .  S
O437        C447   1.278       .  A
O437       Cu445   2.013       .  S
O438        C448   1.276   1_565  A
O438       Cu445   2.003       .  S
O439        C449   1.279       .  A
O439       Cu445   2.017       .  S
O440        C450   1.276   1_565  A
O440       Cu445   2.002       .  S
O441       Cu446   2.014       .  S
O442       Cu446   2.000       .  S
O443       Cu446   2.013       .  S
O444       Cu446   2.003       .  S
C447        C534   1.466       .  S
C448        C544   1.466       .  S
C449        C587   1.478       .  S
C450        C577   1.466       .  S
O451        C461   1.279       .  A
O452        C666   1.278   1_556  A
O452       Cu459   2.003       .  S
O453        C463   1.278   1_565  A
O453       Cu459   2.010   1_554  S
O455        C464   1.278   1_545  A
O455       Cu460   2.010       .  S
O456        C463   1.278       .  A
O456       Cu664   2.007       .  S
O457        C462   1.279       .  A
O457       Cu460   2.013   1_565  S
O458        C461   1.278       .  A
Cu459      Cu664   2.372   1_566  S
Cu460       O660   2.007       .  S
Cu460      Cu663   2.372   1_545  S
C461        C524   1.480       .  S
C462        O656   1.278       .  A
C462        C514   1.481       .  S
C463        C547   1.476       .  S
C464        C537   1.477       .  S
O465        C475   1.278       .  A
O465      Cu1493   2.006       .  S
O466        C476   1.278       .  A
O466       Cu473   2.010       .  S
O467        C477   1.278       .  A
O467       Cu473   2.009   1_455  S
O468        C682   1.277   1_554  A
O468      Cu1493   2.007       .  S
O469        C478   1.277       .  A
O469       Cu474   2.009       .  S
O470        C477   1.278       .  A
O470      Cu1290   2.007       .  S
O471       C1292   1.278       .  A
O471       Cu474   2.006       .  S
O472        C475   1.279       .  A
O472       Cu678   2.011   1_554  S
Cu473      O1485   2.006   1_655  S
Cu473      O1488   2.007       .  S
Cu473     Cu1290   2.372   1_655  S
Cu474      O1286   2.007       .  S
Cu474       O676   2.011       .  S
Cu474     Cu1289   2.372       .  S
C475        C564   1.480       .  S
C476       O1287   1.278   1_655  A
C476       C1370   1.477       .  S
C477        C504   1.480       .  S
C478        O672   1.277       .  A
C478        C497   1.465       .  S
O479        C693   1.277       .  A
O479       Cu487   2.008       .  S
O480        C694   1.277   1_554  A
O480       Cu487   2.007       .  S
O481        C695   1.277       .  A
O481       Cu487   2.010       .  S
O482        C696   1.278   1_554  A
O482       Cu487   2.005       .  S
O483        C492   1.279       .  A
O483       Cu488   2.011       .  S
O484        C491   1.276       .  A
O484       Cu488   2.006       .  S
O485        C490   1.277       .  A
O485       Cu488   2.008       .  S
O486        C489   1.277       .  A
O486       Cu488   2.007       .  S
Cu487      Cu692   2.378   1_554  S
Cu488      Cu691   2.378       .  S
C489        O683   1.277       .  A
C489        C527   1.463       .  S
C490        O684   1.277       .  A
C490        C517   1.463       .  S
C491        O685   1.277       .  A
C491        C507   1.463       .  S
C492        O686   1.278       .  A
C492        C494   1.478       .  S
C493        C494   1.406       .  A
C493        C498   1.398       .  A
C493        H499   1.083       .  S
C494        C699   1.407       .  A
C495        C698   1.407   1_554  A
C495        C496   1.398       .  A
C495        H500   1.083       .  S
C496        C701   1.400   1_554  A
C496        H501   1.083       .  S
C497        C700   1.400       .  A
C497        C498   1.401       .  A
C498        H502   1.083       .  S
C503        C504   1.407       .  A
C503        C508   1.398       .  A
C503        H509   1.083       .  S
C504        C709   1.407       .  A
C505        C708   1.407       .  A
C505        C506   1.398       .  A
C505        H510   1.083       .  S
C506        C711   1.400       .  A
C506        H511   1.083       .  S
C507        C710   1.400       .  A
C507        C508   1.400       .  A
C508        H512   1.084       .  S
C513        C718   1.407       .  A
C513        C518   1.399       .  A
C513        H519   1.083       .  S
C514        C717   1.407       .  A
C514        C515   1.408       .  A
C515        C516   1.398       .  A
C515        H520   1.083       .  S
C516        C517   1.400       .  A
C516        H521   1.084       .  S
C517        C722   1.400       .  A
C518        C721   1.400   1_554  A
C518        H522   1.083       .  S
C523        C728   1.407   1_554  A
C523        C528   1.397       .  A
C523        H529   1.083       .  S
C524        C727   1.407       .  A
C524        C525   1.407       .  A
C525        C526   1.399       .  A
C525        H530   1.083       .  S
C526        C527   1.400       .  A
C526        H531   1.084       .  S
C527        C732   1.399       .  A
C528        C731   1.399       .  A
C528        H532   1.083       .  S
C533        C538   1.398       .  A
C533        H539   1.083       .  S
C534        C535   1.401       .  A
C535        C536   1.398       .  A
C535        H540   1.083       .  S
C536        C537   1.406       .  A
C536        H541   1.083       .  S
C538        H542   1.083       .  S
C543        C548   1.398       .  A
C543        H549   1.083       .  S
C544        C545   1.402   1_545  A
C545        C546   1.398       .  A
C545        H550   1.084       .  S
C546        C547   1.405   1_565  A
C546        H551   1.083       .  S
C548        H552   1.083       .  S
C553       C1370   1.406   1_455  A
C553        C558   1.398       .  A
C553        H559   1.083       .  S
C554       C1292   1.477       .  S
C554       C1369   1.406       .  A
C554        C555   1.406       .  A
C555        C556   1.398       .  A
C555        H560   1.083       .  S
C556        C557   1.401       .  A
C556        H561   1.083       .  S
C557       C1374   1.401       .  A
C558       C1373   1.401   1_455  A
C558        H562   1.083       .  S
C563        C564   1.407       .  A
C563        C568   1.398       .  A
C563        H569   1.083       .  S
C564       C1381   1.407       .  A
C565       C1380   1.407       .  A
C565        C566   1.398       .  A
C565        H570   1.083       .  S
C566       C1383   1.400       .  A
C566        H571   1.084       .  S
C567       C1382   1.400       .  A
C567        C568   1.400       .  A
C568        H572   1.083       .  S
C573        C574   1.405   1_565  A
C573        C578   1.398       .  A
C573        H579   1.083       .  S
C575        C576   1.398       .  A
C575        H580   1.083       .  S
C576        H581   1.083       .  S
C577        C578   1.401   1_545  A
C578        H582   1.084       .  S
C583        C584   1.401       .  A
C583        C588   1.399       .  A
C583        H589   1.084       .  S
C585        C586   1.398       .  A
C585        H590   1.083       .  S
C586        H591   1.083       .  S
C587        C588   1.406       .  A
C588        H592   1.083       .  S
C593       C1410   1.401       .  A
C593        C598   1.398       .  A
C593        H599   1.084       .  S
C594       C1409   1.401       .  A
C594        C595   1.401   1_655  A
C595        C596   1.398       .  A
C595        H600   1.083       .  S
C596       C1413   1.406   1_455  A
C596        H601   1.083       .  S
C597       C1412   1.406       .  A
C597        C598   1.406       .  A
C598        H602   1.083       .  S
C603        C604   1.400       .  A
C603        C608   1.398       .  A
C603        H609   1.083       .  S
C604       C1421   1.400       .  A
C605       C1420   1.400   1_455  A
C605        C606   1.398       .  A
C605        H610   1.084       .  S
C606       C1423   1.407   1_455  A
C606        H611   1.083       .  S
C607       C1422   1.407       .  A
C607        C608   1.408       .  A
C608        H612   1.083       .  S
O613        C623   1.276       .  A
O614        C624   1.278       .  A
O614      Cu1437   2.013   1_565  S
O615        C625   1.278       .  A
O615      Cu1437   2.005       .  S
O616        C626   1.277       .  A
O617        C626   1.277       .  A
O617      Cu1438   2.006       .  S
O618        C625   1.279   1_565  A
O619        C624   1.276   1_655  A
O620        C623   1.277       .  A
O620      Cu1438   2.013       .  S
Cu621      O1430   2.013   1_545  S
Cu621      O1431   2.005       .  S
Cu621     Cu1030   2.378   1_545  S
Cu622      O1433   2.006       .  S
Cu622      O1436   2.013   1_655  S
Cu622     Cu1029   2.378   1_655  S
C623        C808   1.463       .  S
C624        C798   1.466   1_455  S
C625        C778   1.477       .  S
O627        C637   1.278       .  A
O627       Cu635   2.007       .  S
O628        C638   1.278       .  A
O628       Cu635   2.009       .  S
O629        C639   1.276       .  A
O629       Cu635   2.006       .  S
O630        C640   1.277       .  A
O630       Cu635   2.010       .  S
O631       C1456   1.277   1_455  A
O631       Cu636   2.006       .  S
O632       C1455   1.277       .  A
O632       Cu636   2.010       .  S
O633       C1454   1.278   1_455  A
O633       Cu636   2.008       .  S
O634       C1453   1.279   1_455  A
O634       Cu636   2.010       .  S
Cu635     Cu1452   2.375       .  S
Cu636     Cu1451   2.375   1_455  S
C637       O1450   1.279       .  A
C637        C811   1.481       .  S
C638       O1449   1.278       .  A
C638        C801   1.477       .  S
C639       O1448   1.277       .  A
C639        C771   1.464       .  S
C640       O1447   1.277       .  A
C640        C761   1.465       .  S
O641        C651   1.278       .  A
O641       Cu649   2.013       .  S
O642        C652   1.276   1_565  A
O642       Cu649   2.003       .  S
O643        C653   1.279       .  A
O643       Cu649   2.017       .  S
O644        C654   1.276   1_565  A
O644       Cu649   2.002       .  S
O645       Cu650   2.014       .  S
O646       Cu650   2.000       .  S
O647       Cu650   2.013       .  S
O648       Cu650   2.003       .  S
C651        C738   1.466       .  S
C652        C748   1.466       .  S
C653        C791   1.478       .  S
C654        C781   1.466       .  S
O655        C665   1.279       .  A
O656       Cu663   2.003       .  S
O657        C667   1.278   1_565  A
O657       Cu663   2.010       .  S
O659        C668   1.278   1_545  A
O659       Cu664   2.010   1_556  S
O660        C667   1.278       .  A
O661        C666   1.279       .  A
O661       Cu664   2.013   1_565  S
O662        C665   1.278   1_554  A
C665        C728   1.480       .  S
C666        C718   1.481       .  S
C667        C751   1.476       .  S
C668        C741   1.477       .  S
O669        C679   1.278       .  A
O669      Cu1289   2.006       .  S
O670        C680   1.278       .  A
O670       Cu677   2.011   1_556  S
O671        C681   1.278   1_556  A
O671       Cu677   2.009   1_456  S
O672      Cu1289   2.007       .  S
O673        C682   1.277       .  A
O673       Cu678   2.009       .  S
O674        C681   1.278       .  A
O674      Cu1494   2.007   1_454  S
O675       C1496   1.278       .  A
O675       Cu678   2.006       .  S
O676        C679   1.279       .  A
Cu677      O1281   2.006   1_655  S
Cu677      O1284   2.007       .  S
Cu677     Cu1494   2.372   1_554  S
Cu678      O1490   2.007   1_556  S
Cu678     Cu1493   2.372   1_556  S
C679        C768   1.480       .  S
C680       O1491   1.278   1_655  A
C680       C1574   1.477       .  S
C681        C708   1.480       .  S
C682        C701   1.465       .  S
O683       Cu691   2.008       .  S
O684       Cu691   2.007       .  S
O685       Cu691   2.010       .  S
O686       Cu691   2.005       .  S
O687        C696   1.279       .  A
O687       Cu692   2.011       .  S
O688        C695   1.276   1_556  A
O688       Cu692   2.006       .  S
O689        C694   1.277       .  A
O689       Cu692   2.008       .  S
O690        C693   1.277   1_556  A
O690       Cu692   2.007       .  S
C693        C731   1.463       .  S
C694        C721   1.463       .  S
C695        C711   1.463       .  S
C696        C698   1.478       .  S
C697        C698   1.406       .  A
C697        C702   1.398       .  A
C697        H703   1.083       .  S
C699        C700   1.398       .  A
C699        H704   1.083       .  S
C700        H705   1.083       .  S
C701        C702   1.401       .  A
C702        H706   1.083       .  S
C707        C708   1.407   1_556  A
C707        C712   1.398       .  A
C707        H713   1.083       .  S
C709        C710   1.398       .  A
C709        H714   1.083       .  S
C710        H715   1.083       .  S
C711        C712   1.400   1_554  A
C712        H716   1.084       .  S
C717        C722   1.398       .  A
C717        H723   1.083       .  S
C718        C719   1.408   1_554  A
C719        C720   1.398       .  A
C719        H724   1.083       .  S
C720        C721   1.400       .  A
C720        H725   1.084       .  S
C722        H726   1.083       .  S
C727        C732   1.398       .  A
C727        H733   1.083       .  S
C728        C729   1.407       .  A
C729        C730   1.399       .  A
C729        H734   1.083       .  S
C730        C731   1.400   1_556  A
C730        H735   1.084       .  S
C732        H736   1.083       .  S
C737        C742   1.398       .  A
C737        H743   1.083       .  S
C738        C739   1.401       .  A
C739        C740   1.398       .  A
C739        H744   1.083       .  S
C740        C741   1.406       .  A
C740        H745   1.083       .  S
C742        H746   1.083       .  S
C747        C752   1.398       .  A
C747        H753   1.083       .  S
C748        C749   1.402   1_545  A
C749        C750   1.398       .  A
C749        H754   1.084       .  S
C750        C751   1.405   1_565  A
C750        H755   1.083       .  S
C752        H756   1.083       .  S
C757       C1574   1.406   1_455  A
C757        C762   1.398       .  A
C757        H763   1.083       .  S
C758       C1496   1.477       .  S
C758       C1573   1.406       .  A
C758        C759   1.406       .  A
C759        C760   1.398       .  A
C759        H764   1.083       .  S
C760        C761   1.401       .  A
C760        H765   1.083       .  S
C761       C1578   1.401       .  A
C762       C1577   1.401   1_455  A
C762        H766   1.083       .  S
C767        C768   1.407       .  A
C767        C772   1.398       .  A
C767        H773   1.083       .  S
C768       C1585   1.407       .  A
C769       C1584   1.407       .  A
C769        C770   1.398       .  A
C769        H774   1.083       .  S
C770       C1587   1.400       .  A
C770        H775   1.084       .  S
C771       C1586   1.400       .  A
C771        C772   1.400       .  A
C772        H776   1.083       .  S
C777        C778   1.405   1_565  A
C777        C782   1.398       .  A
C777        H783   1.083       .  S
C779        C780   1.398       .  A
C779        H784   1.083       .  S
C780        H785   1.083       .  S
C781        C782   1.401   1_545  A
C782        H786   1.084       .  S
C787        C788   1.401       .  A
C787        C792   1.399       .  A
C787        H793   1.084       .  S
C789        C790   1.398       .  A
C789        H794   1.083       .  S
C790        H795   1.083       .  S
C791        C792   1.406       .  A
C792        H796   1.083       .  S
C797       C1614   1.401       .  A
C797        C802   1.398       .  A
C797        H803   1.084       .  S
C798       C1613   1.401       .  A
C798        C799   1.401   1_655  A
C799        C800   1.398       .  A
C799        H804   1.083       .  S
C800       C1617   1.406   1_455  A
C800        H805   1.083       .  S
C801       C1616   1.406       .  A
C801        C802   1.406       .  A
C802        H806   1.083       .  S
C807        C808   1.400       .  A
C807        C812   1.398       .  A
C807        H813   1.083       .  S
C808       C1625   1.400       .  A
C809       C1624   1.400   1_455  A
C809        C810   1.398       .  A
C809        H814   1.084       .  S
C810       C1627   1.407   1_455  A
C810        H815   1.083       .  S
C811       C1626   1.407       .  A
C811        C812   1.408       .  A
C812        H816   1.083       .  S
O817        C827   1.276       .  A
O817      Cu1233   2.004   1_655  S
O818        C828   1.278       .  A
O819        C829   1.278       .  A
O820        C830   1.277       .  A
O820      Cu1233   2.011   1_665  S
O821        C830   1.277       .  A
O822        C829   1.279       .  A
O822      Cu1234   2.012       .  S
O823        C828   1.276       .  A
O823      Cu1234   2.003       .  S
O824        C827   1.277   1_455  A
Cu825      O1225   2.004   1_455  S
Cu825      O1228   2.011   1_455  S
Cu826      O1230   2.012       .  S
Cu826      O1231   2.003       .  S
C827       C1012   1.463       .  S
C828       C1002   1.466       .  S
C829        C982   1.477       .  S
C830       C1400   1.465       .  S
O831        C841   1.278       .  A
O831       Cu839   2.007       .  S
O832        C842   1.278       .  A
O832       Cu839   2.009       .  S
O833        C843   1.276   1_655  A
O833       Cu839   2.006       .  S
O834        C844   1.277       .  A
O834       Cu839   2.010       .  S
O835       Cu840   2.006       .  S
O836       Cu840   2.010       .  S
O837       Cu840   2.008       .  S
O838       Cu840   2.010       .  S
C841       C1015   1.481       .  S
C842       C1005   1.477       .  S
C843        C975   1.464       .  S
C844        C965   1.465       .  S
O845        C855   1.278       .  A
O845       Cu853   2.013       .  S
O846        C856   1.276       .  A
O846       Cu853   2.003       .  S
O847        C857   1.279       .  A
O847       Cu853   2.017       .  S
O848        C858   1.276       .  A
O848       Cu853   2.002       .  S
O849       C1266   1.278       .  A
O849       Cu854   2.014       .  S
O850       C1265   1.277   1_545  A
O850       Cu854   2.000       .  S
O851       C1264   1.278       .  A
O851       Cu854   2.013       .  S
O852       C1263   1.276   1_545  A
O852       Cu854   2.003       .  S
Cu853     Cu1262   2.377       .  S
Cu854     Cu1261   2.377   1_545  S
C855       O1260   1.276       .  A
C855        C942   1.466       .  S
C856       O1259   1.278       .  A
C856        C952   1.466       .  S
C857       O1258   1.277       .  A
C857        C995   1.478       .  S
C858       O1257   1.278       .  A
C858        C985   1.466       .  S
O859        C869   1.279       .  A
O859      Cu1479   2.013   1_545  S
O860       C1074   1.278   1_556  A
O860       Cu867   2.003       .  S
O861        C871   1.278       .  A
O861       Cu867   2.010   1_554  S
O862       C1280   1.278       .  A
O862      Cu1479   2.008       .  S
O863        C872   1.278       .  A
O863       Cu868   2.010       .  S
O864        C871   1.278       .  A
O864      Cu1072   2.007       .  S
O865        C870   1.279       .  A
O865       Cu868   2.013       .  S
O866        C869   1.278       .  A
O866      Cu1276   2.003       .  S
Cu867      O1471   2.013       .  S
Cu867      O1474   2.008       .  S
Cu867     Cu1072   2.372   1_556  S
Cu868      O1068   2.007       .  S
Cu868      O1274   2.003       .  S
Cu868     Cu1071   2.372       .  S
C869        C932   1.480       .  S
C870       O1064   1.278       .  A
C870        C922   1.481       .  S
C871        C955   1.476       .  S
C872       O1270   1.278       .  A
C872        C945   1.477       .  S
O873        C883   1.278   1_455  A
O874        C884   1.278       .  A
O874       Cu881   2.010       .  S
O875        C885   1.278       .  A
O875       Cu881   2.009       .  S
O876       C1090   1.277   1_554  A
O877        C886   1.277       .  A
O877       Cu882   2.009   1_655  S
O878        C885   1.278       .  A
O879       Cu882   2.006       .  S
O880        C883   1.279       .  A
O880      Cu1086   2.011   1_554  S
Cu882      O1084   2.011   1_455  S
C883        C972   1.480   1_655  S
C885        C912   1.480       .  S
C886       O1080   1.277       .  A
C886        C905   1.465       .  S
O887       C1101   1.277       .  A
O887       Cu895   2.008       .  S
O888       C1102   1.277   1_554  A
O888       Cu895   2.007       .  S
O889       C1103   1.277       .  A
O889       Cu895   2.010       .  S
O890       C1104   1.278   1_554  A
O890       Cu895   2.005       .  S
O891        C900   1.279       .  A
O891       Cu896   2.011       .  S
O892        C899   1.276       .  A
O892       Cu896   2.006       .  S
O893        C898   1.277       .  A
O893       Cu896   2.008       .  S
O894        C897   1.277       .  A
O894       Cu896   2.007       .  S
Cu895     Cu1100   2.378   1_554  S
Cu896     Cu1099   2.378       .  S
C897       O1091   1.277       .  A
C897        C935   1.463       .  S
C898       O1092   1.277       .  A
C898        C925   1.463       .  S
C899       O1093   1.277       .  A
C899        C915   1.463       .  S
C900       O1094   1.278       .  A
C900        C902   1.478       .  S
C901        C902   1.406       .  A
C901        C906   1.398       .  A
C901        H907   1.083       .  S
C902       C1107   1.407       .  A
C903       C1106   1.407   1_554  A
C903        C904   1.398       .  A
C903        H908   1.083       .  S
C904       C1109   1.400   1_554  A
C904        H909   1.083       .  S
C905       C1108   1.400       .  A
C905        C906   1.401       .  A
C906        H910   1.083       .  S
C911        C912   1.407       .  A
C911        C916   1.398       .  A
C911        H917   1.083       .  S
C912       C1117   1.407       .  A
C913       C1116   1.407       .  A
C913        C914   1.398       .  A
C913        H918   1.083       .  S
C914       C1119   1.400       .  A
C914        H919   1.083       .  S
C915       C1118   1.400       .  A
C915        C916   1.400       .  A
C916        H920   1.084       .  S
C921       C1126   1.407       .  A
C921        C926   1.399       .  A
C921        H927   1.083       .  S
C922       C1125   1.407       .  A
C922        C923   1.408       .  A
C923        C924   1.398       .  A
C923        H928   1.083       .  S
C924        C925   1.400       .  A
C924        H929   1.084       .  S
C925       C1130   1.400       .  A
C926       C1129   1.400   1_554  A
C926        H930   1.083       .  S
C931       C1136   1.407   1_554  A
C931        C936   1.397       .  A
C931        H937   1.083       .  S
C932       C1135   1.407       .  A
C932        C933   1.407       .  A
C933        C934   1.399       .  A
C933        H938   1.083       .  S
C934        C935   1.400       .  A
C934        H939   1.084       .  S
C935       C1140   1.399       .  A
C936       C1139   1.399       .  A
C936        H940   1.083       .  S
C941       C1350   1.401   1_545  A
C941        C946   1.398       .  A
C941        H947   1.083       .  S
C942       C1349   1.401       .  A
C942        C943   1.401       .  A
C943        C944   1.398       .  A
C943        H948   1.083       .  S
C944        C945   1.406       .  A
C944        H949   1.083       .  S
C945       C1354   1.406       .  A
C946       C1353   1.406   1_545  A
C946        H950   1.083       .  S
C951       C1360   1.401       .  A
C951        C956   1.398       .  A
C951        H957   1.083       .  S
C952       C1359   1.401       .  A
C952        C953   1.402       .  A
C953        C954   1.398       .  A
C953        H958   1.084       .  S
C954        C955   1.405       .  A
C954        H959   1.083       .  S
C955       C1364   1.406       .  A
C956       C1363   1.406       .  A
C956        H960   1.083       .  S
C961        C966   1.398       .  A
C961        H967   1.083       .  S
C962        C963   1.406       .  A
C963        C964   1.398       .  A
C963        H968   1.083       .  S
C964        C965   1.401       .  A
C964        H969   1.083       .  S
C966        H970   1.083       .  S
C971        C972   1.407   1_655  A
C971        C976   1.398       .  A
C971        H977   1.083       .  S
C973        C974   1.398       .  A
C973        H978   1.083       .  S
C974        H979   1.084       .  S
C975        C976   1.400   1_455  A
C976        H980   1.083       .  S
C981        C982   1.405       .  A
C981        C986   1.398       .  A
C981        H987   1.083       .  S
C982       C1391   1.406       .  A
C983       C1390   1.406       .  A
C983        C984   1.398       .  A
C983        H988   1.083       .  S
C984       C1393   1.401       .  A
C984        H989   1.083       .  S
C985       C1392   1.401       .  A
C985        C986   1.401       .  A
C986        H990   1.084       .  S
C991        C992   1.401       .  A
C991        C996   1.399       .  A
C991        H997   1.084       .  S
C992       C1238   1.465       .  S
C992       C1401   1.400       .  A
C993       C1400   1.400   1_545  A
C993        C994   1.398       .  A
C993        H998   1.083       .  S
C994       C1403   1.407   1_545  A
C994        H999   1.083       .  S
C995       C1402   1.407       .  A
C995        C996   1.406       .  A
C996       H1000   1.083       .  S
C1001      C1006   1.398       .  A
C1001      H1007   1.084       .  S
C1002      C1003   1.401       .  A
C1003      C1004   1.398       .  A
C1003      H1008   1.083       .  S
C1004      H1009   1.083       .  S
C1005      C1006   1.406       .  A
C1006      H1010   1.083       .  S
C1011      C1012   1.400       .  A
C1011      C1016   1.398       .  A
C1011      H1017   1.083       .  S
C1013      C1014   1.398       .  A
C1013      H1018   1.084       .  S
C1014      H1019   1.083       .  S
C1015      C1016   1.408       .  A
C1016      H1020   1.083       .  S
O1021      C1031   1.276       .  A
O1021     Cu1437   2.004   1_655  S
O1022      C1032   1.278       .  A
O1023      C1033   1.278       .  A
O1024      C1034   1.277       .  A
O1024     Cu1437   2.011   1_665  S
O1025      C1034   1.277       .  A
O1026      C1033   1.279       .  A
O1026     Cu1438   2.012       .  S
O1027      C1032   1.276       .  A
O1027     Cu1438   2.003       .  S
O1028      C1031   1.277   1_455  A
Cu1029     O1429   2.004   1_455  S
Cu1029     O1432   2.011   1_455  S
Cu1030     O1434   2.012       .  S
Cu1030     O1435   2.003       .  S
C1031      C1216   1.463       .  S
C1032      C1206   1.466       .  S
C1033      C1186   1.477       .  S
C1034      C1604   1.465       .  S
O1035      C1045   1.278       .  A
O1035     Cu1043   2.007       .  S
O1036      C1046   1.278       .  A
O1036     Cu1043   2.009       .  S
O1037      C1047   1.276   1_655  A
O1037     Cu1043   2.006       .  S
O1038      C1048   1.277       .  A
O1038     Cu1043   2.010       .  S
O1039     Cu1044   2.006       .  S
O1040     Cu1044   2.010       .  S
O1041     Cu1044   2.008       .  S
O1042     Cu1044   2.010       .  S
C1045      C1219   1.481       .  S
C1046      C1209   1.477       .  S
C1047      C1179   1.464       .  S
C1048      C1169   1.465       .  S
O1049      C1059   1.278       .  A
O1049     Cu1057   2.013       .  S
O1050      C1060   1.276       .  A
O1050     Cu1057   2.003       .  S
O1051      C1061   1.279       .  A
O1051     Cu1057   2.017       .  S
O1052      C1062   1.276       .  A
O1052     Cu1057   2.002       .  S
O1053      C1470   1.278       .  A
O1053     Cu1058   2.014       .  S
O1054      C1469   1.277   1_545  A
O1054     Cu1058   2.000       .  S
O1055      C1468   1.278       .  A
O1055     Cu1058   2.013       .  S
O1056      C1467   1.276   1_545  A
O1056     Cu1058   2.003       .  S
Cu1057    Cu1466   2.377       .  S
Cu1058    Cu1465   2.377   1_545  S
C1059      O1464   1.276       .  A
C1059      C1146   1.466       .  S
C1060      O1463   1.278       .  A
C1060      C1156   1.466       .  S
C1061      O1462   1.277       .  A
C1061      C1199   1.478       .  S
C1062      O1461   1.278       .  A
C1062      C1189   1.466       .  S
O1063      C1073   1.279       .  A
O1063     Cu1275   2.013   1_545  S
O1064     Cu1071   2.003       .  S
O1065      C1075   1.278       .  A
O1065     Cu1071   2.010       .  S
O1066      C1484   1.278       .  A
O1066     Cu1275   2.008       .  S
O1067      C1076   1.278       .  A
O1067     Cu1072   2.010   1_556  S
O1068      C1075   1.278       .  A
O1069      C1074   1.279       .  A
O1069     Cu1072   2.013       .  S
O1070      C1073   1.278   1_554  A
O1070     Cu1480   2.003       .  S
Cu1071     O1267   2.013       .  S
Cu1071     O1270   2.008       .  S
Cu1072     O1478   2.003       .  S
C1073      C1136   1.480       .  S
C1074      C1126   1.481       .  S
C1075      C1159   1.476       .  S
C1076      O1474   1.278       .  A
C1076      C1149   1.477       .  S
O1077      C1087   1.278   1_455  A
O1078      C1088   1.278       .  A
O1078     Cu1085   2.011   1_556  S
O1079      C1089   1.278   1_556  A
O1079     Cu1085   2.009   1_556  S
O1081      C1090   1.277       .  A
O1081     Cu1086   2.009       .  S
O1082      C1089   1.278       .  A
O1083     Cu1086   2.006   1_455  S
O1084      C1087   1.279       .  A
C1087      C1176   1.480   1_655  S
C1089      C1116   1.480       .  S
C1090      C1109   1.465       .  S
O1091     Cu1099   2.008       .  S
O1092     Cu1099   2.007       .  S
O1093     Cu1099   2.010       .  S
O1094     Cu1099   2.005       .  S
O1095      C1104   1.279       .  A
O1095     Cu1100   2.011       .  S
O1096      C1103   1.276   1_556  A
O1096     Cu1100   2.006       .  S
O1097      C1102   1.277       .  A
O1097     Cu1100   2.008       .  S
O1098      C1101   1.277   1_556  A
O1098     Cu1100   2.007       .  S
C1101      C1139   1.463       .  S
C1102      C1129   1.463       .  S
C1103      C1119   1.463       .  S
C1104      C1106   1.478       .  S
C1105      C1106   1.406       .  A
C1105      C1110   1.398       .  A
C1105      H1111   1.083       .  S
C1107      C1108   1.398       .  A
C1107      H1112   1.083       .  S
C1108      H1113   1.083       .  S
C1109      C1110   1.401       .  A
C1110      H1114   1.083       .  S
C1115      C1116   1.407   1_556  A
C1115      C1120   1.398       .  A
C1115      H1121   1.083       .  S
C1117      C1118   1.398       .  A
C1117      H1122   1.083       .  S
C1118      H1123   1.083       .  S
C1119      C1120   1.400   1_554  A
C1120      H1124   1.084       .  S
C1125      C1130   1.398       .  A
C1125      H1131   1.083       .  S
C1126      C1127   1.408   1_554  A
C1127      C1128   1.398       .  A
C1127      H1132   1.083       .  S
C1128      C1129   1.400       .  A
C1128      H1133   1.084       .  S
C1130      H1134   1.083       .  S
C1135      C1140   1.398       .  A
C1135      H1141   1.083       .  S
C1136      C1137   1.407       .  A
C1137      C1138   1.399       .  A
C1137      H1142   1.083       .  S
C1138      C1139   1.400   1_556  A
C1138      H1143   1.084       .  S
C1140      H1144   1.083       .  S
C1145      C1554   1.401   1_545  A
C1145      C1150   1.398       .  A
C1145      H1151   1.083       .  S
C1146      C1553   1.401       .  A
C1146      C1147   1.401       .  A
C1147      C1148   1.398       .  A
C1147      H1152   1.083       .  S
C1148      C1149   1.406       .  A
C1148      H1153   1.083       .  S
C1149      C1558   1.406       .  A
C1150      C1557   1.406   1_545  A
C1150      H1154   1.083       .  S
C1155      C1564   1.401       .  A
C1155      C1160   1.398       .  A
C1155      H1161   1.083       .  S
C1156      C1563   1.401       .  A
C1156      C1157   1.402       .  A
C1157      C1158   1.398       .  A
C1157      H1162   1.084       .  S
C1158      C1159   1.405       .  A
C1158      H1163   1.083       .  S
C1159      C1568   1.406       .  A
C1160      C1567   1.406       .  A
C1160      H1164   1.083       .  S
C1165      C1170   1.398       .  A
C1165      H1171   1.083       .  S
C1166      C1167   1.406       .  A
C1167      C1168   1.398       .  A
C1167      H1172   1.083       .  S
C1168      C1169   1.401       .  A
C1168      H1173   1.083       .  S
C1170      H1174   1.083       .  S
C1175      C1176   1.407   1_655  A
C1175      C1180   1.398       .  A
C1175      H1181   1.083       .  S
C1177      C1178   1.398       .  A
C1177      H1182   1.083       .  S
C1178      H1183   1.084       .  S
C1179      C1180   1.400   1_455  A
C1180      H1184   1.083       .  S
C1185      C1186   1.405       .  A
C1185      C1190   1.398       .  A
C1185      H1191   1.083       .  S
C1186      C1595   1.406       .  A
C1187      C1594   1.406       .  A
C1187      C1188   1.398       .  A
C1187      H1192   1.083       .  S
C1188      C1597   1.401       .  A
C1188      H1193   1.083       .  S
C1189      C1596   1.401       .  A
C1189      C1190   1.401       .  A
C1190      H1194   1.084       .  S
C1195      C1196   1.401       .  A
C1195      C1200   1.399       .  A
C1195      H1201   1.084       .  S
C1196      C1442   1.465       .  S
C1196      C1605   1.400       .  A
C1197      C1604   1.400   1_545  A
C1197      C1198   1.398       .  A
C1197      H1202   1.083       .  S
C1198      C1607   1.407   1_545  A
C1198      H1203   1.083       .  S
C1199      C1606   1.407       .  A
C1199      C1200   1.406       .  A
C1200      H1204   1.083       .  S
C1205      C1210   1.398       .  A
C1205      H1211   1.084       .  S
C1206      C1207   1.401       .  A
C1207      C1208   1.398       .  A
C1207      H1212   1.083       .  S
C1208      H1213   1.083       .  S
C1209      C1210   1.406       .  A
C1210      H1214   1.083       .  S
C1215      C1216   1.400       .  A
C1215      C1220   1.398       .  A
C1215      H1221   1.083       .  S
C1217      C1218   1.398       .  A
C1217      H1222   1.084       .  S
C1218      H1223   1.083       .  S
C1219      C1220   1.408       .  A
C1220      H1224   1.083       .  S
O1225      C1235   1.276       .  A
O1226      C1236   1.278       .  A
O1227      C1237   1.278       .  A
O1228      C1238   1.277       .  A
O1229      C1238   1.277       .  A
O1230      C1237   1.279   1_565  A
O1231      C1236   1.276       .  A
O1232      C1235   1.277   1_455  A
C1235      C1420   1.463       .  S
C1236      C1410   1.466       .  S
C1237      C1390   1.477       .  S
O1239      C1249   1.278       .  A
O1239     Cu1247   2.007       .  S
O1240      C1250   1.278       .  A
O1240     Cu1247   2.009       .  S
O1241      C1251   1.276   1_655  A
O1241     Cu1247   2.006       .  S
O1242      C1252   1.277       .  A
O1242     Cu1247   2.010       .  S
O1243     Cu1248   2.006       .  S
O1244     Cu1248   2.010       .  S
O1245     Cu1248   2.008       .  S
O1246     Cu1248   2.010       .  S
C1249      C1423   1.481       .  S
C1250      C1413   1.477       .  S
C1251      C1383   1.464       .  S
C1252      C1373   1.465       .  S
O1253      C1263   1.278       .  A
O1253     Cu1261   2.013       .  S
O1254      C1264   1.276   1_565  A
O1254     Cu1261   2.003       .  S
O1255      C1265   1.279       .  A
O1255     Cu1261   2.017       .  S
O1256      C1266   1.276   1_565  A
O1256     Cu1261   2.002       .  S
O1257     Cu1262   2.014       .  S
O1258     Cu1262   2.000       .  S
O1259     Cu1262   2.013       .  S
O1260     Cu1262   2.003       .  S
C1263      C1350   1.466       .  S
C1264      C1360   1.466       .  S
C1265      C1403   1.478       .  S
C1266      C1393   1.466       .  S
O1267      C1277   1.279       .  A
O1268      C1482   1.278   1_556  A
O1268     Cu1275   2.003       .  S
O1269      C1279   1.278   1_565  A
O1269     Cu1275   2.010   1_554  S
O1271      C1280   1.278   1_545  A
O1271     Cu1276   2.010       .  S
O1272      C1279   1.278       .  A
O1272     Cu1480   2.007       .  S
O1273      C1278   1.279       .  A
O1273     Cu1276   2.013   1_565  S
O1274      C1277   1.278       .  A
Cu1275    Cu1480   2.372   1_566  S
Cu1276     O1476   2.007       .  S
Cu1276    Cu1479   2.372   1_545  S
C1277      C1340   1.480       .  S
C1278      O1472   1.278       .  A
C1278      C1330   1.481       .  S
C1279      C1363   1.476       .  S
C1280      C1353   1.477       .  S
O1281      C1291   1.278   1_455  A
O1282      C1292   1.278       .  A
O1282     Cu1289   2.010       .  S
O1283      C1293   1.278       .  A
O1283     Cu1289   2.009       .  S
O1284      C1498   1.277   1_554  A
O1285      C1294   1.277       .  A
O1285     Cu1290   2.009   1_655  S
O1286      C1293   1.278       .  A
O1287     Cu1290   2.006       .  S
O1288      C1291   1.279       .  A
O1288     Cu1494   2.011   1_554  S
Cu1290     O1492   2.011   1_455  S
C1291      C1380   1.480   1_655  S
C1293      C1320   1.480       .  S
C1294      O1488   1.277       .  A
C1294      C1313   1.465       .  S
O1295      C1509   1.277       .  A
O1295     Cu1303   2.008       .  S
O1296      C1510   1.277   1_554  A
O1296     Cu1303   2.007       .  S
O1297      C1511   1.277       .  A
O1297     Cu1303   2.010       .  S
O1298      C1512   1.278   1_554  A
O1298     Cu1303   2.005       .  S
O1299      C1308   1.279       .  A
O1299     Cu1304   2.011       .  S
O1300      C1307   1.276       .  A
O1300     Cu1304   2.006       .  S
O1301      C1306   1.277       .  A
O1301     Cu1304   2.008       .  S
O1302      C1305   1.277       .  A
O1302     Cu1304   2.007       .  S
Cu1303    Cu1508   2.378   1_554  S
Cu1304    Cu1507   2.378       .  S
C1305      O1499   1.277       .  A
C1305      C1343   1.463       .  S
C1306      O1500   1.277       .  A
C1306      C1333   1.463       .  S
C1307      O1501   1.277       .  A
C1307      C1323   1.463       .  S
C1308      O1502   1.278       .  A
C1308      C1310   1.478       .  S
C1309      C1310   1.406       .  A
C1309      C1314   1.398       .  A
C1309      H1315   1.083       .  S
C1310      C1515   1.407       .  A
C1311      C1514   1.407   1_554  A
C1311      C1312   1.398       .  A
C1311      H1316   1.083       .  S
C1312      C1517   1.400   1_554  A
C1312      H1317   1.083       .  S
C1313      C1516   1.400       .  A
C1313      C1314   1.401       .  A
C1314      H1318   1.083       .  S
C1319      C1320   1.407       .  A
C1319      C1324   1.398       .  A
C1319      H1325   1.083       .  S
C1320      C1525   1.407       .  A
C1321      C1524   1.407       .  A
C1321      C1322   1.398       .  A
C1321      H1326   1.083       .  S
C1322      C1527   1.400       .  A
C1322      H1327   1.083       .  S
C1323      C1526   1.400       .  A
C1323      C1324   1.400       .  A
C1324      H1328   1.084       .  S
C1329      C1534   1.407       .  A
C1329      C1334   1.399       .  A
C1329      H1335   1.083       .  S
C1330      C1533   1.407       .  A
C1330      C1331   1.408       .  A
C1331      C1332   1.398       .  A
C1331      H1336   1.083       .  S
C1332      C1333   1.400       .  A
C1332      H1337   1.084       .  S
C1333      C1538   1.400       .  A
C1334      C1537   1.400   1_554  A
C1334      H1338   1.083       .  S
C1339      C1544   1.407   1_554  A
C1339      C1344   1.397       .  A
C1339      H1345   1.083       .  S
C1340      C1543   1.407       .  A
C1340      C1341   1.407       .  A
C1341      C1342   1.399       .  A
C1341      H1346   1.083       .  S
C1342      C1343   1.400       .  A
C1342      H1347   1.084       .  S
C1343      C1548   1.399       .  A
C1344      C1547   1.399       .  A
C1344      H1348   1.083       .  S
C1349      C1354   1.398       .  A
C1349      H1355   1.083       .  S
C1350      C1351   1.401       .  A
C1351      C1352   1.398       .  A
C1351      H1356   1.083       .  S
C1352      C1353   1.406       .  A
C1352      H1357   1.083       .  S
C1354      H1358   1.083       .  S
C1359      C1364   1.398       .  A
C1359      H1365   1.083       .  S
C1360      C1361   1.402   1_545  A
C1361      C1362   1.398       .  A
C1361      H1366   1.084       .  S
C1362      C1363   1.405   1_565  A
C1362      H1367   1.083       .  S
C1364      H1368   1.083       .  S
C1369      C1374   1.398       .  A
C1369      H1375   1.083       .  S
C1370      C1371   1.406       .  A
C1371      C1372   1.398       .  A
C1371      H1376   1.083       .  S
C1372      C1373   1.401       .  A
C1372      H1377   1.083       .  S
C1374      H1378   1.083       .  S
C1379      C1380   1.407   1_655  A
C1379      C1384   1.398       .  A
C1379      H1385   1.083       .  S
C1381      C1382   1.398       .  A
C1381      H1386   1.083       .  S
C1382      H1387   1.084       .  S
C1383      C1384   1.400   1_455  A
C1384      H1388   1.083       .  S
C1389      C1390   1.405   1_565  A
C1389      C1394   1.398       .  A
C1389      H1395   1.083       .  S
C1391      C1392   1.398       .  A
C1391      H1396   1.083       .  S
C1392      H1397   1.083       .  S
C1393      C1394   1.401   1_545  A
C1394      H1398   1.084       .  S
C1399      C1400   1.401       .  A
C1399      C1404   1.399       .  A
C1399      H1405   1.084       .  S
C1401      C1402   1.398       .  A
C1401      H1406   1.083       .  S
C1402      H1407   1.083       .  S
C1403      C1404   1.406       .  A
C1404      H1408   1.083       .  S
C1409      C1414   1.398       .  A
C1409      H1415   1.084       .  S
C1410      C1411   1.401       .  A
C1411      C1412   1.398       .  A
C1411      H1416   1.083       .  S
C1412      H1417   1.083       .  S
C1413      C1414   1.406       .  A
C1414      H1418   1.083       .  S
C1419      C1420   1.400       .  A
C1419      C1424   1.398       .  A
C1419      H1425   1.083       .  S
C1421      C1422   1.398       .  A
C1421      H1426   1.084       .  S
C1422      H1427   1.083       .  S
C1423      C1424   1.408       .  A
C1424      H1428   1.083       .  S
O1429      C1439   1.276       .  A
O1430      C1440   1.278       .  A
O1431      C1441   1.278       .  A
O1432      C1442   1.277       .  A
O1433      C1442   1.277       .  A
O1434      C1441   1.279   1_565  A
O1435      C1440   1.276       .  A
O1436      C1439   1.277   1_455  A
C1439      C1624   1.463       .  S
C1440      C1614   1.466       .  S
C1441      C1594   1.477       .  S
O1443      C1453   1.278       .  A
O1443     Cu1451   2.007       .  S
O1444      C1454   1.278       .  A
O1444     Cu1451   2.009       .  S
O1445      C1455   1.276   1_655  A
O1445     Cu1451   2.006       .  S
O1446      C1456   1.277       .  A
O1446     Cu1451   2.010       .  S
O1447     Cu1452   2.006       .  S
O1448     Cu1452   2.010       .  S
O1449     Cu1452   2.008       .  S
O1450     Cu1452   2.010       .  S
C1453      C1627   1.481       .  S
C1454      C1617   1.477       .  S
C1455      C1587   1.464       .  S
C1456      C1577   1.465       .  S
O1457      C1467   1.278       .  A
O1457     Cu1465   2.013       .  S
O1458      C1468   1.276   1_565  A
O1458     Cu1465   2.003       .  S
O1459      C1469   1.279       .  A
O1459     Cu1465   2.017       .  S
O1460      C1470   1.276   1_565  A
O1460     Cu1465   2.002       .  S
O1461     Cu1466   2.014       .  S
O1462     Cu1466   2.000       .  S
O1463     Cu1466   2.013       .  S
O1464     Cu1466   2.003       .  S
C1467      C1554   1.466       .  S
C1468      C1564   1.466       .  S
C1469      C1607   1.478       .  S
C1470      C1597   1.466       .  S
O1471      C1481   1.279       .  A
O1472     Cu1479   2.003       .  S
O1473      C1483   1.278   1_565  A
O1473     Cu1479   2.010       .  S
O1475      C1484   1.278   1_545  A
O1475     Cu1480   2.010   1_556  S
O1476      C1483   1.278       .  A
O1477      C1482   1.279       .  A
O1477     Cu1480   2.013   1_565  S
O1478      C1481   1.278   1_554  A
C1481      C1544   1.480       .  S
C1482      C1534   1.481       .  S
C1483      C1567   1.476       .  S
C1484      C1557   1.477       .  S
O1485      C1495   1.278   1_455  A
O1486      C1496   1.278       .  A
O1486     Cu1493   2.011   1_556  S
O1487      C1497   1.278   1_556  A
O1487     Cu1493   2.009   1_556  S
O1489      C1498   1.277       .  A
O1489     Cu1494   2.009       .  S
O1490      C1497   1.278       .  A
O1491     Cu1494   2.006   1_455  S
O1492      C1495   1.279       .  A
C1495      C1584   1.480   1_655  S
C1497      C1524   1.480       .  S
C1498      C1517   1.465       .  S
O1499     Cu1507   2.008       .  S
O1500     Cu1507   2.007       .  S
O1501     Cu1507   2.010       .  S
O1502     Cu1507   2.005       .  S
O1503      C1512   1.279       .  A
O1503     Cu1508   2.011       .  S
O1504      C1511   1.276   1_556  A
O1504     Cu1508   2.006       .  S
O1505      C1510   1.277       .  A
O1505     Cu1508   2.008       .  S
O1506      C1509   1.277   1_556  A
O1506     Cu1508   2.007       .  S
C1509      C1547   1.463       .  S
C1510      C1537   1.463       .  S
C1511      C1527   1.463       .  S
C1512      C1514   1.478       .  S
C1513      C1514   1.406       .  A
C1513      C1518   1.398       .  A
C1513      H1519   1.083       .  S
C1515      C1516   1.398       .  A
C1515      H1520   1.083       .  S
C1516      H1521   1.083       .  S
C1517      C1518   1.401       .  A
C1518      H1522   1.083       .  S
C1523      C1524   1.407   1_556  A
C1523      C1528   1.398       .  A
C1523      H1529   1.083       .  S
C1525      C1526   1.398       .  A
C1525      H1530   1.083       .  S
C1526      H1531   1.083       .  S
C1527      C1528   1.400   1_554  A
C1528      H1532   1.084       .  S
C1533      C1538   1.398       .  A
C1533      H1539   1.083       .  S
C1534      C1535   1.408   1_554  A
C1535      C1536   1.398       .  A
C1535      H1540   1.083       .  S
C1536      C1537   1.400       .  A
C1536      H1541   1.084       .  S
C1538      H1542   1.083       .  S
C1543      C1548   1.398       .  A
C1543      H1549   1.083       .  S
C1544      C1545   1.407       .  A
C1545      C1546   1.399       .  A
C1545      H1550   1.083       .  S
C1546      C1547   1.400   1_556  A
C1546      H1551   1.084       .  S
C1548      H1552   1.083       .  S
C1553      C1558   1.398       .  A
C1553      H1559   1.083       .  S
C1554      C1555   1.401       .  A
C1555      C1556   1.398       .  A
C1555      H1560   1.083       .  S
C1556      C1557   1.406       .  A
C1556      H1561   1.083       .  S
C1558      H1562   1.083       .  S
C1563      C1568   1.398       .  A
C1563      H1569   1.083       .  S
C1564      C1565   1.402   1_545  A
C1565      C1566   1.398       .  A
C1565      H1570   1.084       .  S
C1566      C1567   1.405   1_565  A
C1566      H1571   1.083       .  S
C1568      H1572   1.083       .  S
C1573      C1578   1.398       .  A
C1573      H1579   1.083       .  S
C1574      C1575   1.406       .  A
C1575      C1576   1.398       .  A
C1575      H1580   1.083       .  S
C1576      C1577   1.401       .  A
C1576      H1581   1.083       .  S
C1578      H1582   1.083       .  S
C1583      C1584   1.407   1_655  A
C1583      C1588   1.398       .  A
C1583      H1589   1.083       .  S
C1585      C1586   1.398       .  A
C1585      H1590   1.083       .  S
C1586      H1591   1.084       .  S
C1587      C1588   1.400   1_455  A
C1588      H1592   1.083       .  S
C1593      C1594   1.405   1_565  A
C1593      C1598   1.398       .  A
C1593      H1599   1.083       .  S
C1595      C1596   1.398       .  A
C1595      H1600   1.083       .  S
C1596      H1601   1.083       .  S
C1597      C1598   1.401   1_545  A
C1598      H1602   1.084       .  S
C1603      C1604   1.401       .  A
C1603      C1608   1.399       .  A
C1603      H1609   1.084       .  S
C1605      C1606   1.398       .  A
C1605      H1610   1.083       .  S
C1606      H1611   1.083       .  S
C1607      C1608   1.406       .  A
C1608      H1612   1.083       .  S
C1613      C1618   1.398       .  A
C1613      H1619   1.084       .  S
C1614      C1615   1.401       .  A
C1615      C1616   1.398       .  A
C1615      H1620   1.083       .  S
C1616      H1621   1.083       .  S
C1617      C1618   1.406       .  A
C1618      H1622   1.083       .  S
C1623      C1624   1.400       .  A
C1623      C1628   1.398       .  A
C1623      H1629   1.083       .  S
C1625      C1626   1.398       .  A
C1625      H1630   1.084       .  S
C1626      H1631   1.083       .  S
C1627      C1628   1.408       .  A
C1628      H1632   1.083       .  S
