geometry optimzed in LAMMPS
_audit_creation_date              2020-11-30 
_audit_creation_method            'lammps2cif' 
_symmetry_space_group_name_H-M    'P1' 
_symmetry_Int_Tables_number       1 
_symmetry_cell_setting            triclinic 
loop_ 
_symmetry_equiv_pos_as_xyz 
  x,y,z 
_cell_length_a                    16.76689709 
_cell_length_b                    35.71213265419032 
_cell_length_c                    35.5251166766346 
_cell_angle_alpha                 91.98789773950494 
_cell_angle_beta                  98.68160275322727 
_cell_angle_gamma                 89.15206985897261 
loop_ 
_atom_site_label 
_atom_site_type_symbol 
_atom_site_fract_x 
_atom_site_fract_y 
_atom_site_fract_z 
_atom_site_charge 
C1          C  0.28880959  0.20556751  0.47661908    -0.02900
C2          C  0.42505579  0.20919513  0.98857732    -0.02900
O3          O  0.20152496  0.01838191  0.50211039    -0.72100
O4          O  0.19285995  0.41585216  0.46345488    -0.72400
O5          O  0.20876351  0.45297203  0.03537560    -0.72200
O6          O  0.19078419  0.48332215  0.43163121    -0.72200
O7          O  0.30620744  0.45733788  0.43198461    -0.72200
O8          O  0.33009125  0.47175854  0.04024511    -0.72200
O9          O  0.31590405  0.41015901  0.48989042    -0.72200
O10         O  0.31410586  0.01689768  0.48174409    -0.72300
V11         V  0.19815040  0.46703351  0.48309011     1.35200
V12         V  0.31774711  0.46406561  0.48613712     1.35200
C13         C  0.26041297  0.03637458  0.49476819     0.77100
C14         C  0.25112337  0.39432115  0.47426295     0.77200
C15         C  0.27201990  0.46394237  0.05677538     0.77000
C16         C  0.24359202  0.47068414  0.41269340     0.77000
O17         O  0.45594779  0.41763205  0.46732029    -0.72100
O18         O  0.45198912  0.02236398  0.49492505    -0.72400
O19         O  0.44042621  0.48172353  0.42577087    -0.72200
O20         O  0.46636777  0.45807263  0.03258155    -0.72200
O21         O  0.08098591  0.48482350  0.03681469    -0.72200
O22         O  0.06005556  0.45989456  0.42891009    -0.72200
O23         O  0.06160570  0.02679880  0.47240344    -0.72200
O24         O  0.07884957  0.42168007  0.49487117    -0.72300
V25         V  0.45233272  0.47028802  0.47982743     1.35200
V26         V  0.07124688  0.47340133  0.48290453     1.35200
C27         C  0.02053344  0.40124068  0.48154867     0.77100
C28         C  0.50418713  0.04345712  0.48569593     0.77200
C29         C  0.49695473  0.47027705  0.40793262     0.77000
C30         C  0.02910859  0.46960949  0.05352718     0.77000
C31         C  0.17398035  0.23007425  0.98985234    -0.02900
C32         C  0.04078648  0.22997565  0.47240162    -0.02900
C33         C  0.06054705  0.46227897  0.22326649    -0.02900
C34         C  0.19446900  0.46347840  0.24123578    -0.02900
O35         O  0.29512444  0.27657803  0.22745594    -0.72100
O36         O  0.31671050  0.17330333  0.25549231    -0.72400
O37         O  0.28907246  0.20950277  0.18683835    -0.72200
O38         O  0.32135665  0.24061308  0.29375762    -0.72200
O39         O  0.20571240  0.21716104  0.29401168    -0.72200
O40         O  0.16866958  0.22916227  0.18686325    -0.72200
O41         O  0.19108086  0.16978798  0.23437932    -0.72200
O42         O  0.18592994  0.27506521  0.25166190    -0.72300
V43         V  0.30607167  0.22492126  0.24070727     1.35200
V44         V  0.18726200  0.22278625  0.24126068     1.35200
C45         C  0.23848203  0.29411563  0.24019093     0.77100
C46         C  0.25648150  0.15270239  0.24592757     0.77200
C47         C  0.22198505  0.21763030  0.16739411     0.77000
C48         C  0.26871058  0.23033149  0.31267854     0.77000
O49         O  0.41758990  0.23684572  0.17532261    -0.72100
O50         O  0.44383544  0.21023534  0.28080998    -0.72400
O51         O  0.44281009  0.27761623  0.24393880    -0.72200
O52         O  0.41437002  0.17342152  0.21269462    -0.72200
O53         O  0.03795156  0.16644723  0.23740456    -0.72200
O54         O  0.05288809  0.27233907  0.22109413    -0.72200
O55         O  0.06561538  0.22681604  0.28345607    -0.72200
O56         O  0.03081391  0.20797770  0.17610106    -0.72300
V57         V  0.42915428  0.22490445  0.22835729     1.35200
V58         V  0.04779369  0.21881157  0.22939003     1.35200
C59         C  0.46820844  0.22064300  0.15680945     0.77100
C60         C  0.01185284  0.21490782  0.30085102     0.77200
C61         C  0.00277507  0.29400091  0.23456628     0.77000
C62         C  0.47020862  0.15155193  0.22533711     0.77000
C63         C  0.30615081  0.48686239  0.22783851    -0.02900
C64         C  0.44166842  0.48493920  0.23565877    -0.02900
C65         C  0.39978176  0.09217855  0.20047072    -0.09500
C66         C  0.45716880  0.11036802  0.22622458     0.06700
C67         C  0.00747723  0.08858272  0.25094913    -0.03300
C68         C  0.01524728  0.04948486  0.24245091    -0.07700
C69         C  0.45219048  0.02874300  0.22272780     0.05800
C70         C  0.39967533  0.05260522  0.19610732    -0.02800
Br71       Br  0.38611183  0.05204555  0.14105585    -0.02500
H72         H  0.35869676  0.10969802  0.18205608     0.09700
H73         H  0.06210472  0.03233573  0.25518149     0.07700
Br74       Br  0.03632184  0.11294688  0.30002518    -0.02900
C75         C  0.21446920  0.04731781  0.22804660    -0.09500
C76         C  0.28662268  0.02940556  0.24372467     0.06700
C77         C  0.33193011  0.05321851  0.27310499    -0.03300
C78         C  0.32528901  0.09284436  0.27164306    -0.07700
C79         C  0.26242990  0.11045349  0.24819904     0.05800
C80         C  0.20353363  0.08705963  0.22855065    -0.02800
Br81       Br  0.11778004  0.11027148  0.19558587    -0.02500
H82         H  0.16904518  0.02990180  0.21299113     0.09700
H83         H  0.36384873  0.11024581  0.29212495     0.07700
Br84       Br  0.33954077  0.04566765  0.32691518    -0.02900
C85         C  0.22894423  0.39498043  0.27482549    -0.09500
C86         C  0.21761087  0.41713127  0.24082476     0.06700
C87         C  0.21249835  0.39168087  0.20775584    -0.03300
C88         C  0.20267578  0.35282451  0.20893303    -0.07700
C89         C  0.23146020  0.33492225  0.24155554     0.05800
C90         C  0.24401015  0.35612274  0.27515906    -0.02800
Br91       Br  0.27203145  0.33233995  0.32227324    -0.02500
H92         H  0.21771503  0.40528895  0.30202179     0.09700
H93         H  0.18790236  0.33523988  0.18313360     0.07700
Br94       Br  0.28770911  0.38622651  0.17390403    -0.02900
C95         C  0.97453078  0.35580834  0.20338132    -0.09500
C96         C  0.01014738  0.33668555  0.23515557     0.06700
C97         C  0.05446144  0.35925693  0.26442774    -0.03300
C98         C  0.06584068  0.39845946  0.25965987    -0.07700
C99         C  0.04315969  0.41701156  0.22514577     0.05800
C100        C  0.00253522  0.39163788  0.19551253    -0.02800
Br101      Br  0.54821938  0.37332297  0.15244168    -0.02500
H102        H  0.43744998  0.33929791  0.18118887     0.09700
H103        H  0.08970885  0.41537719  0.28440019     0.07700
Br104      Br  0.07822245  0.34254916  0.31506609    -0.02900
C105        C  0.47941182  0.23961027  0.40052160    -0.09500
C106        C  0.03203614  0.21907145  0.42692741     0.06700
C107        C  0.07308206  0.19077870  0.40759846    -0.03300
C108        C  0.06650517  0.18810529  0.36682139    -0.07700
C109        C  0.02127738  0.21397937  0.34335463     0.05800
C110        C  0.47965276  0.24046745  0.36117610    -0.02800
Br111      Br  0.44570667  0.28418931  0.33317674    -0.02500
H112        H  0.44310811  0.25873980  0.41087286     0.09700
H113        H  0.09335115  0.16470419  0.35386116     0.07700
Br114      Br  0.10548256  0.14577715  0.43005718    -0.02900
C115        C  0.15197704  0.24255041  0.10609751    -0.09500
C116        C  0.20707807  0.21721478  0.12377609     0.06700
C117        C  0.24796311  0.19517081  0.09913945    -0.03300
C118        C  0.24028265  0.20232265  0.05936899    -0.07700
C119        C  0.18485197  0.22812600  0.03874753     0.05800
C120        C  0.14804785  0.25148620  0.06716227    -0.02800
Br121      Br  0.14816407  0.30502819  0.07857612    -0.02500
H122        H  0.11598701  0.25798891  0.12468469     0.09700
H123        H  0.28520154  0.18834647  0.04572043     0.07700
Br124      Br  0.31511323  0.15410532  0.11786074    -0.02900
C125        C  0.04349445  0.34275378  0.44794972    -0.09500
C126        C  0.02997293  0.36006926  0.48116923     0.06700
C127        C  0.01844583  0.33748817  0.01112569    -0.03300
C128        C  0.02445590  0.29727976  0.00755387    -0.07700
C129        C  0.02678834  0.27748843  0.47284529     0.05800
C130        C  0.02529890  0.30459950  0.44161108    -0.02800
Br131      Br  0.93492034  0.32982259  0.40886432    -0.02500
H132        H  0.06621161  0.36001978  0.42679191     0.09700
H133        H  0.02519630  0.28045626  0.03144075     0.07700
Br134      Br  0.99725211  0.36383132  0.05549983    -0.02900
C135        C  0.48558462  0.44056527  0.33948509    -0.09500
C136        C  0.49256030  0.47200750  0.36484859     0.06700
C137        C  0.99530262  0.00614093  0.34792820    -0.03300
C138        C  0.48335891  0.00926796  0.30813856    -0.07700
C139        C  0.46073874  0.47972360  0.28139320     0.05800
C140        C  0.46080241  0.44436756  0.29938792    -0.02800
Br141      Br  0.40435671  0.40190989  0.27403306    -0.02500
H142        H  0.49012390  0.41286644  0.35103692     0.09700
H143        H  0.98193462  0.03758347  0.30072643     0.07700
Br144      Br  0.02093650  0.05103758  0.37775465    -0.02900
C145        C  0.48737769  0.48585700  0.11578427    -0.09500
C146        C  0.03923510  0.46650211  0.09561306     0.06700
C147        C  0.10079472  0.44659345  0.11701286    -0.03300
C148        C  0.11378193  0.45008141  0.15715067    -0.07700
C149        C  0.05744421  0.46679788  0.17837607     0.05800
C150        C  0.00483083  0.49021321  0.15591090    -0.02800
Br151      Br  0.55767694  0.03452270  0.15706591    -0.02500
H152        H  0.44027856  0.00127949  0.09897773     0.09700
H153        H  0.16909756  0.44048529  0.17049103     0.07700
Br154      Br  0.15605775  0.40832922  0.09402430    -0.02500
C155        C  0.22807913  0.29698390  0.00995182    -0.09500
C156        C  0.19301986  0.27333983  0.48016551     0.06700
C157        C  0.18415599  0.29291126  0.44375483    -0.03300
C158        C  0.20852375  0.33118045  0.44152008    -0.07700
C159        C  0.23803409  0.35273056  0.47402858     0.05800
C160        C  0.24496137  0.33503064  0.00779193    -0.02800
Br161      Br  0.28057695  0.36207791  0.05288279    -0.02500
H162        H  0.24981484  0.28518950  0.03612723     0.09700
H163        H  0.20157879  0.34457172  0.41426711     0.07700
Br164      Br  0.14211794  0.27508667  0.39349993    -0.02900
C165        C  0.22969112  0.49843041  0.11293081    -0.09500
C166        C  0.27696046  0.47092603  0.09895237     0.06700
C167        C  0.33210987  0.45286063  0.12534384    -0.03300
C168        C  0.34003423  0.46137043  0.16457739    -0.07700
C169        C  0.29113684  0.48715482  0.18128191     0.05800
C170        C  0.23930783  0.50916558  0.15218920    -0.02800
Br171      Br  0.21745709  0.06283517  0.14691583    -0.02500
H172        H  0.18933001  0.51367762  0.09187987     0.09700
H173        H  0.38383081  0.44500803  0.18241438     0.07700
Br174      Br  0.39392328  0.41349090  0.10919011    -0.02900
C175        C  0.16943770  0.49157491  0.35037171    -0.09500
C176        C  0.23188784  0.47135686  0.36994618     0.06700
C177        C  0.28530432  0.45492182  0.34840712    -0.03300
C178        C  0.27944170  0.46345623  0.30937256    -0.07700
C179        C  0.20768518  0.47515885  0.28701628     0.05800
C180        C  0.15907111  0.49597834  0.31019604    -0.02800
Br181      Br  0.15846313  0.54875320  0.31044275    -0.02500
H182        H  0.14175913  0.50994383  0.36881409     0.09700
H183        H  0.32134179  0.45343980  0.29368218     0.07700
Br184      Br  0.33919110  0.41067164  0.36812167    -0.02900
C185        C  0.50950758  0.20287813  0.05545837    -0.09500
C186        C  0.44317322  0.22011992  0.03296454     0.06700
C187        C  0.39140524  0.24069502  0.05436570    -0.03300
C188        C  0.39487805  0.23670677  0.09377528    -0.07700
C189        C  0.45662921  0.21694292  0.11454533     0.05800
C190        C  0.00936428  0.19669364  0.09418234    -0.02800
Br191      Br  0.07072917  0.15491662  0.11481600    -0.02500
H192        H  0.05379658  0.18766685  0.04162051     0.09700
H193        H  0.35308991  0.25206540  0.10954135     0.07700
Br194      Br  0.39731613  0.29213072  0.05899953    -0.02900
C195        C  0.43958473  0.14106608  0.01899919    -0.09500
C196        C  0.44329113  0.16461197  0.48725833     0.06700
C197        C  0.45309097  0.14300109  0.45393601    -0.03300
C198        C  0.47809317  0.10507434  0.45577366    -0.07700
C199        C  0.49314726  0.08542901  0.48893283     0.05800
C200        C  0.46864605  0.10369491  0.02067819    -0.02800
Br201      Br  0.46112624  0.07690497  0.06519122    -0.02500
H202        H  0.41142384  0.15115890  0.04287367     0.09700
H203        H  0.97546985  0.08967093  0.42985772     0.07700
Br204      Br  0.91257383  0.15512479  0.40239245    -0.02900
C205        C  0.24913623  0.19047169  0.40417486    -0.09500
C206        C  0.28094486  0.21475466  0.43362929     0.06700
C207        C  0.31144566  0.24735520  0.42178955    -0.03300
C208        C  0.30640671  0.25477507  0.38211201    -0.07700
C209        C  0.28079725  0.22682857  0.35419127     0.05800
C210        C  0.25483954  0.19378496  0.36640666    -0.02800
Br211      Br  0.23727015  0.14957293  0.33350792    -0.02500
H212        H  0.22567642  0.16644648  0.40935280     0.09700
H213        H  0.32121274  0.28187656  0.37405116     0.07700
Br214      Br  0.35577550  0.28165043  0.46074946    -0.02900
C215        C  0.21608500  0.14314790  0.50278911    -0.09500
C216        C  0.26747297  0.15866761  0.47819684     0.06700
C217        C  0.29849750  0.12749223  0.45629139    -0.03300
C218        C  0.31189408  0.09200862  0.47101771    -0.07700
C219        C  0.26461064  0.07832210  0.49542116     0.05800
C220        C  0.21635181  0.10450960  0.51212689    -0.02800
Br221      Br  0.16088059  0.08978085  0.55180724    -0.02500
H222        H  0.16942658  0.15982520  0.51274713     0.09700
H223        H  0.35037220  0.07195178  0.45842144     0.07700
Br224      Br  0.25413093  0.09968511  0.40818205    -0.02900
C225        C  0.28878046  0.20563964  0.97666005    -0.02900
C226        C  0.42506160  0.20917492  0.48857666    -0.02900
O227        O  0.20181029  0.01842222  0.00221665    -0.72100
O228        O  0.19232807  0.41613005  0.96334495    -0.72400
O229        O  0.20895750  0.45282178  0.53536410    -0.72200
O230        O  0.19030126  0.48369920  0.93167037    -0.72200
O231        O  0.30567689  0.45766752  0.93195572    -0.72200
O232        O  0.33024574  0.47169845  0.54027770    -0.72200
O233        O  0.31542269  0.41032793  0.98965834    -0.72200
O234        O  0.31437384  0.01693402  0.98182745    -0.72300
V235        V  0.19781282  0.46728446  0.98311350     1.35200
V236        V  0.31739348  0.46424957  0.98609032     1.35200
C237        C  0.26071510  0.03640800  0.99487352     0.77100
C238        C  0.25059473  0.39454523  0.97400171     0.77200
C239        C  0.27213747  0.46385455  0.55677825     0.77000
C240        C  0.24308024  0.47106362  0.91270911     0.77000
O241        O  0.45588701  0.41752835  0.96756714    -0.72100
O242        O  0.45224682  0.02237694  0.99477308    -0.72400
O243        O  0.44032706  0.48142212  0.92575270    -0.72200
O244        O  0.46648700  0.45797191  0.53248849    -0.72200
O245        O  0.08114337  0.48472368  0.53677557    -0.72200
O246        O  0.06003169  0.45966200  0.92899967    -0.72200
O247        O  0.06190444  0.02677166  0.97224849    -0.72200
O248        O  0.07876102  0.42166258  0.99512187    -0.72300
V249        V  0.45221534  0.47021103  0.97986743     1.35200
V250        V  0.07113544  0.47334198  0.98297117     1.35200
C251        C  0.02045564  0.40119906  0.98185297     0.77100
C252        C  0.50438994  0.04345816  0.98548162     0.77200
C253        C  0.49687330  0.46991998  0.90795203     0.77000
C254        C  0.02921860  0.46950030  0.55345508     0.77000
C255        C  0.17406988  0.22997563  0.48987111    -0.02900
C256        C  0.04067838  0.23004181  0.97243823    -0.02900
C257        C  0.06038358  0.46226320  0.72320395    -0.02900
C258        C  0.19426961  0.46349647  0.74122801    -0.02900
O259        O  0.29481328  0.27653576  0.72737518    -0.72100
O260        O  0.31645697  0.17330108  0.75557267    -0.72400
O261        O  0.28875948  0.20939832  0.68684927    -0.72200
O262        O  0.32108804  0.24065793  0.79375279    -0.72200
O263        O  0.20542397  0.21724609  0.79403904    -0.72200
O264        O  0.16834992  0.22904352  0.68685106    -0.72200
O265        O  0.19080897  0.16978636  0.73450654    -0.72200
O266        O  0.18562168  0.27505612  0.75158222    -0.72300
V267        V  0.30577952  0.22489766  0.74070864     1.35200
V268        V  0.18696988  0.22277506  0.74127447     1.35200
C269        C  0.23816027  0.29408826  0.74008644     0.77100
C270        C  0.25621134  0.15270549  0.74605002     0.77200
C271        C  0.22167015  0.21748880  0.66739162     0.77000
C272        C  0.26844766  0.23040117  0.81269343     0.77000
O273        O  0.41709263  0.23689312  0.67530292    -0.72100
O274        O  0.44352226  0.21026106  0.78081863    -0.72400
O275        O  0.44250754  0.27764987  0.74395128    -0.72200
O276        O  0.41395343  0.17345915  0.71268756    -0.72200
O277        O  0.03751864  0.16645426  0.73736646    -0.72200
O278        O  0.05255433  0.27233550  0.72109834    -0.72200
O279        O  0.06529184  0.22678755  0.78345782    -0.72200
O280        O  0.03034007  0.20803108  0.67606616    -0.72300
V281        V  0.42877780  0.22494111  0.72835682     1.35200
V282        V  0.04740323  0.21881810  0.72937263     1.35200
C283        C  0.46767138  0.22069412  0.65676387     0.77100
C284        C  0.01152828  0.21489431  0.80086778     0.77200
C285        C  0.00251240  0.29400944  0.73459836     0.77000
C286        C  0.46977880  0.15157937  0.72530904     0.77000
C287        C  0.30600225  0.48680862  0.72782078    -0.02900
C288        C  0.44151203  0.48488138  0.73564550    -0.02900
C289        C  0.39911937  0.09221569  0.70054217    -0.09500
C290        C  0.45668997  0.11039957  0.72620948     0.06700
C291        C  0.00697265  0.08861775  0.75090485    -0.03300
C292        C  0.01465042  0.04951434  0.74242676    -0.07700
C293        C  0.45155514  0.02878063  0.72277143     0.05800
C294        C  0.39895948  0.05264456  0.69619167    -0.02800
Br295      Br  0.38525188  0.05202175  0.64114982    -0.02500
H296        H  0.35793108  0.10972233  0.68216724     0.09700
H297        H  0.06153739  0.03235018  0.75510873     0.07700
Br298      Br  0.03549579  0.11295831  0.80002106    -0.02900
C299        C  0.21414293  0.04737407  0.72801208    -0.09500
C300        C  0.28613462  0.02941297  0.74378484     0.06700
C301        C  0.33134219  0.05318164  0.77325776    -0.03300
C302        C  0.32480656  0.09281513  0.77182724    -0.07700
C303        C  0.26211019  0.11046304  0.74831263     0.05800
C304        C  0.20328082  0.08711217  0.72854622    -0.02800
Br305      Br  0.11755629  0.11039150  0.69561204    -0.02500
H306        H  0.16875596  0.02997071  0.71292374     0.09700
H307        H  0.36326339  0.11018622  0.79238278     0.07700
Br308      Br  0.33900726  0.04551987  0.82707648    -0.02900
C309        C  0.22839780  0.39490561  0.77479530    -0.09500
C310        C  0.21730871  0.41711796  0.74082599     0.06700
C311        C  0.21246410  0.39170159  0.70774256    -0.03300
C312        C  0.20261294  0.35283769  0.70884316    -0.07700
C313        C  0.23116516  0.33489318  0.74146783     0.05800
C314        C  0.24351493  0.35605301  0.77509774    -0.02800
Br315      Br  0.27154301  0.33222952  0.82219091    -0.02500
H316        H  0.21695088  0.40515425  0.80197996     0.09700
H317        H  0.18804563  0.33528322  0.68300873     0.07700
Br318      Br  0.28812016  0.38625967  0.67412362    -0.02900
C319        C  0.97463583  0.35572907  0.70327662    -0.09500
C320        C  0.00994907  0.33668399  0.73514970     0.06700
C321        C  0.05410528  0.35930684  0.76443342    -0.03300
C322        C  0.06544045  0.39850329  0.75961865    -0.07700
C323        C  0.04300709  0.41699119  0.72506093     0.05800
C324        C  0.00263527  0.39155419  0.69540142    -0.02800
Br325      Br  0.54831921  0.37319365  0.65232514    -0.02500
H326        H  0.43763764  0.33918894  0.68107129     0.09700
H327        H  0.08919196  0.41546906  0.78434424     0.07700
Br328      Br  0.07781811  0.34270581  0.81511449    -0.02900
C329        C  0.47926090  0.23976114  0.90055095    -0.09500
C330        C  0.03180989  0.21922796  0.92696319     0.06700
C331        C  0.07272722  0.19090776  0.90770058    -0.03300
C332        C  0.06603692  0.18809110  0.86691717    -0.07700
C333        C  0.02094175  0.21398917  0.84339120     0.05800
C334        C  0.47945567  0.24056912  0.86119166    -0.02800
Br335      Br  0.44547518  0.28426472  0.83315009    -0.02500
H336        H  0.44299904  0.25889541  0.91091418     0.09700
H337        H  0.09267786  0.16458477  0.85403442     0.07700
Br338      Br  0.10543670  0.14623978  0.93063259    -0.02900
C339        C  0.15228551  0.24264591  0.60610997    -0.09500
C340        C  0.20678612  0.21705048  0.62376495     0.06700
C341        C  0.24728378  0.19481812  0.59910502    -0.03300
C342        C  0.23969136  0.20196344  0.55933279    -0.07700
C343        C  0.18475207  0.22797706  0.53873181     0.05800
C344        C  0.14839814  0.25151695  0.56715792    -0.02800
Br345      Br  0.14779982  0.30509219  0.57801054    -0.02500
H346        H  0.11683876  0.25835069  0.62473928     0.09700
H347        H  0.28463972  0.18796835  0.54571406     0.07700
Br348      Br  0.31466444  0.15383971  0.61785169    -0.02900
C349        C  0.04350853  0.34280928  0.94821278    -0.09500
C350        C  0.03000818  0.36005239  0.98145745     0.06700
C351        C  0.01806321  0.33754877  0.51082475    -0.03300
C352        C  0.02405123  0.29731552  0.50733438    -0.07700
C353        C  0.02667846  0.27752208  0.97297999     0.05800
C354        C  0.02525470  0.30467921  0.94179335    -0.02800
Br355      Br  0.93502215  0.32986890  0.90893115    -0.02500
H356        H  0.06611510  0.36014464  0.92707812     0.09700
H357        H  0.02474071  0.28049094  0.53120785     0.07700
Br358      Br  0.99683266  0.36406816  0.55510029    -0.02900
C359        C  0.48466509  0.44023627  0.83941943    -0.09500
C360        C  0.49257811  0.47162697  0.86485673     0.06700
C361        C  0.99516053  0.00614537  0.84786101    -0.03300
C362        C  0.48287007  0.00928937  0.80808787    -0.07700
C363        C  0.46061093  0.47954741  0.78139000     0.05800
C364        C  0.46007739  0.44417131  0.79931107    -0.02800
Br365      Br  0.40375496  0.40179059  0.77370662    -0.02500
H366        H  0.48861351  0.41251408  0.85090723     0.09700
H367        H  0.98129384  0.03761265  0.80068210     0.07700
Br368      Br  0.02073622  0.05106250  0.87764908    -0.02900
C369        C  0.48745267  0.48583799  0.61568269    -0.09500
C370        C  0.03924383  0.46639685  0.59553435     0.06700
C371        C  0.10072983  0.44645929  0.61694770    -0.03300
C372        C  0.11367718  0.45000161  0.65708840    -0.07700
C373        C  0.05733987  0.46676008  0.67830089     0.05800
C374        C  0.00476339  0.49016637  0.65580905    -0.02800
Br375      Br  0.55684682  0.03468250  0.65732003    -0.02500
H376        H  0.44021318  0.00152598  0.59898272     0.09700
H377        H  0.16900342  0.44043155  0.67043670     0.07700
Br378      Br  0.15615763  0.40819313  0.59394398    -0.02500
C379        C  0.22948279  0.29663019  0.51017321    -0.09500
C380        C  0.19263536  0.27347630  0.97995980     0.06700
C381        C  0.18399254  0.29299190  0.94350782    -0.03300
C382        C  0.20831714  0.33128689  0.94121998    -0.07700
C383        C  0.23741284  0.35294615  0.97373324     0.05800
C384        C  0.24622434  0.33470194  0.50805522    -0.02800
Br385      Br  0.28150324  0.36173062  0.55316483    -0.02500
H386        H  0.25161288  0.28472957  0.53631842     0.09700
H387        H  0.20155115  0.34461479  0.91393780     0.07700
Br388      Br  0.14186715  0.27512039  0.89332339    -0.02900
C389        C  0.22948908  0.49830542  0.61287925    -0.09500
C390        C  0.27694439  0.47085699  0.59893724     0.06700
C391        C  0.33213980  0.45285810  0.62534982    -0.03300
C392        C  0.34002024  0.46139715  0.66456216    -0.07700
C393        C  0.29096583  0.48711163  0.68125193     0.05800
C394        C  0.23899092  0.50906185  0.65213261    -0.02800
Br395      Br  0.21647879  0.06276949  0.64675064    -0.02500
H396        H  0.18907220  0.51349540  0.59180351     0.09700
H397        H  0.38390295  0.44507678  0.68239121     0.07700
Br398      Br  0.39405541  0.41349941  0.60929230    -0.02900
C399        C  0.17011365  0.49257878  0.85040421    -0.09500
C400        C  0.23144594  0.47172499  0.86998334     0.06700
C401        C  0.28433060  0.45478862  0.84847398    -0.03300
C402        C  0.27881162  0.46321462  0.80944718    -0.07700
C403        C  0.20744374  0.47524672  0.78702552     0.05800
C404        C  0.15966393  0.49669027  0.81017824    -0.02800
Br405      Br  0.15901688  0.54947747  0.80979362    -0.02500
H406        H  0.14358617  0.51148010  0.86879187     0.09700
H407        H  0.32059407  0.45293166  0.79385388     0.07700
Br408      Br  0.33797679  0.41054782  0.86836829    -0.02900
C409        C  0.50939540  0.20318542  0.55546163    -0.09500
C410        C  0.44293771  0.22027178  0.53292126     0.06700
C411        C  0.39066469  0.24066307  0.55423075    -0.03300
C412        C  0.39379068  0.23642591  0.59362777    -0.07700
C413        C  0.45605133  0.21697923  0.61448024     0.05800
C414        C  0.00918337  0.19692145  0.59418654    -0.02800
Br415      Br  0.07021767  0.15501546  0.61475984    -0.02500
H416        H  0.05371396  0.18790935  0.54166489     0.09700
H417        H  0.35127020  0.25131740  0.60936999     0.07700
Br418      Br  0.39922789  0.29207504  0.56065617    -0.02900
C419        C  0.43956661  0.14114439  0.51919053    -0.09500
C420        C  0.44317393  0.16459887  0.98710168     0.06700
C421        C  0.45262557  0.14298813  0.95371563    -0.03300
C422        C  0.47767339  0.10505482  0.95549065    -0.07700
C423        C  0.49323041  0.08542580  0.98866340     0.05800
C424        C  0.46837413  0.10372586  0.52089474    -0.02800
Br425      Br  0.46036752  0.07693278  0.56534197    -0.02500
H426        H  0.41141363  0.15130774  0.54304066     0.09700
H427        H  0.97465571  0.08964654  0.92956900     0.07700
Br428      Br  0.91218851  0.15518038  0.90221123    -0.02900
C429        C  0.24886033  0.19057513  0.90422782    -0.09500
C430        C  0.28087344  0.21482094  0.93367238     0.06700
C431        C  0.31136247  0.24742283  0.92182575    -0.03300
C432        C  0.30629822  0.25483737  0.88214380    -0.07700
C433        C  0.28053735  0.22690720  0.85421778     0.05800
C434        C  0.25439748  0.19389781  0.86644648    -0.02800
Br435      Br  0.23645983  0.14968237  0.83357251    -0.02500
H436        H  0.22535903  0.16655647  0.90939998     0.09700
H437        H  0.32116549  0.28193494  0.87408952     0.07700
Br438      Br  0.35558002  0.28176605  0.96078858    -0.02900
C439        C  0.21662460  0.14318129  0.00312928    -0.09500
C440        C  0.26752618  0.15872484  0.97831593     0.06700
C441        C  0.29815064  0.12754686  0.95625485    -0.03300
C442        C  0.31180716  0.09205172  0.97094852    -0.07700
C443        C  0.26492148  0.07835079  0.99552181     0.05800
C444        C  0.21689780  0.10451964  0.01238334    -0.02800
Br445      Br  0.16137058  0.08964906  0.05198332    -0.02500
H446        H  0.17009225  0.15982904  0.01322405     0.09700
H447        H  0.35006925  0.07199390  0.95820589     0.07700
Br448      Br  0.25296622  0.09973035  0.90827723    -0.02900
C449        C  0.28885155  0.70555946  0.47667171    -0.02900
C450        C  0.42520033  0.70920691  0.98857727    -0.02900
O451        O  0.20170942  0.51831964  0.50217962    -0.72100
O452        O  0.19274850  0.91590193  0.46341090    -0.72400
O453        O  0.20913178  0.95290317  0.03535560    -0.72200
O454        O  0.19063711  0.98337535  0.43155518    -0.72200
O455        O  0.30607455  0.95740093  0.43194021    -0.72200
O456        O  0.33042890  0.97175142  0.04023467    -0.72200
O457        O  0.31580303  0.91023283  0.48983905    -0.72200
O458        O  0.31429754  0.51682905  0.48181531    -0.72300
V459        V  0.19801237  0.96709440  0.48303286     1.35200
V460        V  0.31760891  0.96414168  0.48608157     1.35200
C461        C  0.26061317  0.53631054  0.49484240     0.77100
C462        C  0.25103635  0.89437910  0.47421225     0.77200
C463        C  0.27234898  0.96391752  0.05675790     0.77000
C464        C  0.24347851  0.97073922  0.41263366     0.77000
O465        O  0.45598133  0.91758784  0.46737609    -0.72100
O466        O  0.45216562  0.52239653  0.49496281    -0.72400
O467        O  0.44038681  0.98162120  0.42574772    -0.72200
O468        O  0.46667537  0.95801878  0.03244678    -0.72200
O469        O  0.08128625  0.98477221  0.03668820    -0.72200
O470        O  0.06004079  0.95984990  0.42895130    -0.72200
O471        O  0.06179701  0.52679967  0.47241676    -0.72200
O472        O  0.07887316  0.92170602  0.49494351    -0.72300
V473        V  0.45226271  0.97024586  0.47982954     1.35200
V474        V  0.07117039  0.97341221  0.48293148     1.35200
C475        C  0.02059835  0.90124116  0.48162605     0.77100
C476        C  0.50437815  0.54347703  0.48572809     0.77200
C477        C  0.49694891  0.97016305  0.40793168     0.77000
C478        C  0.02941236  0.96953795  0.05339329     0.77000
C479        C  0.17415506  0.73005937  0.98986700    -0.02900
C480        C  0.04079184  0.73000731  0.47242724    -0.02900
C481        C  0.06087433  0.96222912  0.22317707    -0.02900
C482        C  0.19477776  0.96344633  0.24117367    -0.02900
O483        O  0.29518792  0.77654084  0.22747621    -0.72100
O484        O  0.31671512  0.67329272  0.25555668    -0.72400
O485        O  0.28911217  0.70946916  0.18688038    -0.72200
O486        O  0.32136762  0.74061025  0.29380676    -0.72200
O487        O  0.20571532  0.71716466  0.29405173    -0.72200
O488        O  0.16871632  0.72914040  0.18688503    -0.72200
O489        O  0.19107810  0.66980658  0.23443977    -0.72200
O490        O  0.18597379  0.77506298  0.25167271    -0.72300
V491        V  0.30610209  0.72490074  0.24075246     1.35200
V492        V  0.18728520  0.72278711  0.24129435     1.35200
C493        C  0.23854591  0.79409144  0.24019145     0.77100
C494        C  0.25645347  0.65271242  0.24599639     0.77200
C495        C  0.22204600  0.71760228  0.16742328     0.77000
C496        C  0.26871942  0.73032146  0.31272423     0.77000
O497        O  0.41753452  0.73687407  0.17527904    -0.72100
O498        O  0.44382397  0.71030575  0.28078948    -0.72400
O499        O  0.44287643  0.77765904  0.24388016    -0.72200
O500        O  0.41427172  0.67347171  0.21268481    -0.72200
O501        O  0.03786128  0.66646832  0.23736275    -0.72200
O502        O  0.05296292  0.77232628  0.22104461    -0.72200
O503        O  0.06562865  0.72682179  0.28342767    -0.72200
O504        O  0.03077375  0.70800454  0.17605620    -0.72300
V505        V  0.42913689  0.72495226  0.22832441     1.35200
V506        V  0.04777758  0.71881914  0.22935035     1.35200
C507        C  0.46815131  0.72067958  0.15675997     0.77100
C508        C  0.01184598  0.71495089  0.30083684     0.77200
C509        C  0.00287267  0.79400590  0.23450096     0.77000
C510        C  0.47009181  0.65159226  0.22530815     0.77000
C511        C  0.30647591  0.98682621  0.22778653    -0.02900
C512        C  0.44200684  0.98488161  0.23560198    -0.02900
C513        C  0.39943042  0.59223801  0.20054269    -0.09500
C514        C  0.45699578  0.61041724  0.22621456     0.06700
C515        C  0.00735021  0.58863437  0.25092192    -0.03300
C516        C  0.01499117  0.54952758  0.24247160    -0.07700
C517        C  0.45182752  0.52880173  0.22279319     0.05800
C518        C  0.39924210  0.55266552  0.19619911    -0.02800
Br519      Br  0.38563478  0.55213378  0.14114091    -0.02500
H520        H  0.35823043  0.60975749  0.18218136     0.09700
H521        H  0.06189834  0.53238954  0.25518099     0.07700
Br522      Br  0.03636900  0.61303225  0.29996310    -0.02900
C523        C  0.21422338  0.54736977  0.22811256    -0.09500
C524        C  0.28630947  0.52943259  0.24381762     0.06700
C525        C  0.33162922  0.55323368  0.27321331    -0.03300
C526        C  0.32512488  0.59285420  0.27172376    -0.07700
C527        C  0.26230968  0.61047601  0.24827238     0.05800
C528        C  0.20337990  0.58711377  0.22859982    -0.02800
Br529      Br  0.11773962  0.61038081  0.19559220    -0.02500
H530        H  0.16882199  0.52996014  0.21304054     0.09700
H531        H  0.36375446  0.61024782  0.29218733     0.07700
Br532      Br  0.33906712  0.54579292  0.32705086    -0.02900
C533        C  0.22911690  0.89494648  0.27478261    -0.09500
C534        C  0.21787760  0.91709479  0.24077768     0.06700
C535        C  0.21275895  0.89163545  0.20771341    -0.03300
C536        C  0.20286722  0.85278458  0.20890113    -0.07700
C537        C  0.23157723  0.83488979  0.24153524     0.05800
C538        C  0.24416364  0.85609244  0.27513052    -0.02800
Br539      Br  0.27221228  0.83231796  0.32225099    -0.02500
H540        H  0.21780625  0.90524729  0.30196785     0.09700
H541        H  0.18811352  0.83518882  0.18310842     0.07700
Br542      Br  0.28794008  0.88614987  0.17384548    -0.02900
C543        C  0.97486101  0.85576760  0.20324764    -0.09500
C544        C  0.01032142  0.83667032  0.23506188     0.06700
C545        C  0.05463073  0.85922909  0.26433749    -0.03300
C546        C  0.06602823  0.89842772  0.25956916    -0.07700
C547        C  0.04346834  0.91696345  0.22503900     0.05800
C548        C  0.00294359  0.89157657  0.19538018    -0.02800
Br549      Br  0.54856029  0.87326134  0.15228554    -0.02500
H550        H  0.43780366  0.83925660  0.18105096     0.09700
H551        H  0.08985481  0.91535041  0.28431249     0.07700
Br552      Br  0.07844567  0.84247711  0.31495834    -0.02900
C553        C  0.47940515  0.73967260  0.40053229    -0.09500
C554        C  0.03199202  0.71914566  0.42694322     0.06700
C555        C  0.07302874  0.69086539  0.40763273    -0.03300
C556        C  0.06643197  0.68814591  0.36685162    -0.07700
C557        C  0.02126605  0.71403106  0.34335785     0.05800
C558        C  0.47966725  0.74053300  0.36118189    -0.02800
Br559      Br  0.44576216  0.78426054  0.33319019    -0.02500
H560        H  0.44312595  0.75880727  0.41088827     0.09700
H561        H  0.09320938  0.66470875  0.35392327     0.07700
Br562      Br  0.10556947  0.64600937  0.43027702    -0.02900
C563        C  0.15247478  0.74271229  0.10614240    -0.09500
C564        C  0.20718263  0.71720144  0.12379880     0.06700
C565        C  0.24779189  0.69503263  0.09913940    -0.03300
C566        C  0.24009684  0.70216420  0.05936018    -0.07700
C567        C  0.18493868  0.72809212  0.03874902     0.05800
C568        C  0.14847983  0.75158110  0.06718270    -0.02800
Br569      Br  0.14790592  0.80515224  0.07813425    -0.02500
H570        H  0.11689575  0.75834198  0.12476920     0.09700
H571        H  0.28501520  0.68816539  0.04572634     0.07700
Br572      Br  0.31517849  0.65404761  0.11788377    -0.02900
C573        C  0.04360804  0.84277807  0.44802886    -0.09500
C574        C  0.03011857  0.86008146  0.48125511     0.06700
C575        C  0.01829129  0.83756250  0.01085668    -0.03300
C576        C  0.02425970  0.79733759  0.00735669    -0.07700
C577        C  0.02682868  0.77751567  0.47290038     0.05800
C578        C  0.02535406  0.80463487  0.44167538    -0.02800
Br579      Br  0.93497397  0.82985454  0.40892902    -0.02500
H580        H  0.06627296  0.86005528  0.42686615     0.09700
H581        H  0.02497821  0.78051400  0.03123532     0.07700
Br582      Br  0.99703635  0.86405646  0.05513650    -0.02900
C583        C  0.48556440  0.94044057  0.33945990    -0.09500
C584        C  0.49266503  0.97187356  0.36484073     0.06700
C585        C  0.99492802  0.50626365  0.34791701    -0.03300
C586        C  0.48286836  0.50939949  0.30814063    -0.07700
C587        C  0.46107560  0.97962654  0.28135671     0.05800
C588        C  0.46094466  0.94426718  0.29934729    -0.02800
Br589      Br  0.40453734  0.90182171  0.27394875    -0.02500
H590        H  0.48993486  0.91273680  0.35099948     0.09700
H591        H  0.98133534  0.53769610  0.30070067     0.07700
Br592      Br  0.02080866  0.55116474  0.37768256    -0.02900
C593        C  0.48770492  0.98575498  0.11567267    -0.09500
C594        C  0.03954133  0.96640664  0.09548658     0.06700
C595        C  0.10115360  0.94652129  0.11688439    -0.03300
C596        C  0.11415061  0.95001366  0.15703542    -0.07700
C597        C  0.05780058  0.96673328  0.17827250     0.05800
C598        C  0.00516767  0.99012938  0.15579716    -0.02800
Br599      Br  0.55717394  0.53462417  0.15728823    -0.02500
H600        H  0.43999743  0.50140516  0.09908676     0.09700
H601        H  0.16947116  0.94041784  0.17037776     0.07700
Br602      Br  0.15635095  0.90823666  0.09385500    -0.02500
C603        C  0.22910430  0.79680617  0.01007228    -0.09500
C604        C  0.19302183  0.77336729  0.48017061     0.06700
C605        C  0.18420483  0.79292010  0.44375161    -0.03300
C606        C  0.20856951  0.83119127  0.44149120    -0.07700
C607        C  0.23798425  0.85277790  0.47399226     0.05800
C608        C  0.24593307  0.83486043  0.00792216    -0.02800
Br609      Br  0.28137934  0.86188511  0.05300948    -0.02500
H610        H  0.25109963  0.78495406  0.03623525     0.09700
H611        H  0.20165838  0.84455755  0.41422572     0.07700
Br612      Br  0.14217436  0.77506030  0.39352574    -0.02900
C613        C  0.23004456  0.99844503  0.11290734    -0.09500
C614        C  0.27724360  0.97090346  0.09893147     0.06700
C615        C  0.33235178  0.95281910  0.12532628    -0.03300
C616        C  0.34027316  0.96131599  0.16455245    -0.07700
C617        C  0.29144853  0.98712928  0.18124588     0.05800
C618        C  0.23972031  0.00919205  0.15216288    -0.02800
Br619      Br  0.21689858  0.56277268  0.14687873    -0.02500
H620        H  0.18974113  0.01372534  0.09186491     0.09700
H621        H  0.38403424  0.94493697  0.18239317     0.07700
Br622      Br  0.39421226  0.91347076  0.10920915    -0.02900
C623        C  0.16973676  0.99176706  0.35028232    -0.09500
C624        C  0.23188393  0.97140003  0.36988879     0.06700
C625        C  0.28526364  0.95486193  0.34839120    -0.03300
C626        C  0.27958682  0.96337460  0.30935953    -0.07700
C627        C  0.20795123  0.97515273  0.28695540     0.05800
C628        C  0.15947157  0.99611468  0.31010000    -0.02800
Br629      Br  0.15898633  0.04889589  0.31024968    -0.02500
H630        H  0.14230551  0.01026892  0.36869753     0.09700
H631        H  0.32149748  0.95328497  0.29371456     0.07700
Br632      Br  0.33908469  0.91062724  0.36818808    -0.02900
C633        C  0.50967836  0.70311179  0.05543174    -0.09500
C634        C  0.44321942  0.72024326  0.03292928     0.06700
C635        C  0.39115863  0.74070084  0.05428511    -0.03300
C636        C  0.39447745  0.73655753  0.09368587    -0.07700
C637        C  0.45657752  0.71699674  0.11448934     0.05800
C638        C  0.00957336  0.69689743  0.09415589    -0.02800
Br639      Br  0.07083170  0.65506300  0.11474720    -0.02500
H640        H  0.05397014  0.68788671  0.04159886     0.09700
H641        H  0.35224183  0.75161691  0.10945072     0.07700
Br642      Br  0.39869260  0.79213357  0.06003533    -0.02900
C643        C  0.43982950  0.64112415  0.01912947    -0.09500
C644        C  0.44335204  0.66461395  0.48726073     0.06700
C645        C  0.45307449  0.64298578  0.45392980    -0.03300
C646        C  0.47816058  0.60507094  0.45578024    -0.07700
C647        C  0.49333559  0.58544626  0.48894947     0.05800
C648        C  0.46869992  0.60370980  0.02079795    -0.02800
Br649      Br  0.46099062  0.57690114  0.06528334    -0.02500
H650        H  0.41174670  0.65125869  0.04301231     0.09700
H651        H  0.97544368  0.58965795  0.42985167     0.07700
Br652      Br  0.91257382  0.65508179  0.40235399    -0.02900
C653        C  0.24919327  0.69044212  0.40423407    -0.09500
C654        C  0.28100432  0.71473667  0.43368188     0.06700
C655        C  0.31150294  0.74733522  0.42183961    -0.03300
C656        C  0.30645569  0.75475259  0.38215827    -0.07700
C657        C  0.28079937  0.72680926  0.35423715     0.05800
C658        C  0.25480984  0.69377320  0.36645807    -0.02800
Br659      Br  0.23704668  0.64955466  0.33358100    -0.02500
H660        H  0.22582321  0.66641537  0.40939957     0.09700
H661        H  0.32128069  0.78185363  0.37409726     0.07700
Br662      Br  0.35580549  0.78165015  0.46079843    -0.02900
C663        C  0.21631178  0.64309465  0.50293578    -0.09500
C664        C  0.26758345  0.65863980  0.47829550     0.06700
C665        C  0.29851895  0.62746401  0.45635252    -0.03300
C666        C  0.31203532  0.59197600  0.47107817    -0.07700
C667        C  0.26482585  0.57826504  0.49550842     0.05800
C668        C  0.21659366  0.60444282  0.51224539    -0.02800
Br669      Br  0.16108426  0.58965725  0.55189093    -0.02500
H670        H  0.16965397  0.65975549  0.51291745     0.09700
H671        H  0.35047026  0.57192690  0.45843971     0.07700
Br672      Br  0.25372844  0.59960628  0.40833498    -0.02900
C673        C  0.28892279  0.70563975  0.97665536    -0.02900
C674        C  0.42509608  0.70918081  0.48859833    -0.02900
O675        O  0.20153599  0.51853611  0.00230729    -0.72100
O676        O  0.19287736  0.91598813  0.96338344    -0.72400
O677        O  0.20885729  0.95290750  0.53532508    -0.72200
O678        O  0.19074157  0.98350003  0.93163584    -0.72200
O679        O  0.30614206  0.95750391  0.93193248    -0.72200
O680        O  0.33013460  0.97179556  0.54022121    -0.72200
O681        O  0.31594086  0.91025421  0.98976102    -0.72200
O682        O  0.31408452  0.51700677  0.98191001    -0.72300
V683        V  0.19821843  0.96715404  0.98308462     1.35200
V684        V  0.31780475  0.96417140  0.98608423     1.35200
C685        C  0.26046454  0.53649861  0.99496014     0.77100
C686        C  0.25113960  0.89443599  0.97412575     0.77200
C687        C  0.27203793  0.96395742  0.55673322     0.77000
C688        C  0.24350872  0.97086350  0.91267221     0.77000
O689        O  0.45610492  0.91759141  0.96733413    -0.72100
O690        O  0.45199290  0.52236983  0.99480241    -0.72400
O691        O  0.44050453  0.98159437  0.92567960    -0.72200
O692        O  0.46641975  0.95797877  0.53250914    -0.72200
O693        O  0.08103372  0.98477873  0.53678865    -0.72200
O694        O  0.06019655  0.95979883  0.92883764    -0.72200
O695        O  0.06168815  0.52671478  0.97232787    -0.72200
O696        O  0.07899376  0.92168423  0.99487120    -0.72300
V697        V  0.45246206  0.97025380  0.97975376     1.35200
V698        V  0.07137805  0.97338365  0.98282128     1.35200
C699        C  0.02068948  0.90123354  0.98156614     0.77100
C700        C  0.50423795  0.54342646  0.98555515     0.77200
C701        C  0.49702066  0.97013666  0.90784467     0.77000
C702        C  0.02915670  0.96953240  0.55347653     0.77000
C703        C  0.17408778  0.72999544  0.48990056    -0.02900
C704        C  0.04085923  0.73003029  0.97239503    -0.02900
C705        C  0.06033680  0.96227430  0.72319248    -0.02900
C706        C  0.19423817  0.96348004  0.74119480    -0.02900
O707        O  0.29464123  0.77653121  0.72739336    -0.72100
O708        O  0.31641007  0.67330336  0.75559708    -0.72400
O709        O  0.28859991  0.70939697  0.68686953    -0.72200
O710        O  0.32101377  0.74066946  0.79375567    -0.72200
O711        O  0.20537099  0.71723907  0.79408369    -0.72200
O712        O  0.16816477  0.72900120  0.68688488    -0.72200
O713        O  0.19075607  0.66975167  0.73456028    -0.72200
O714        O  0.18542878  0.77504417  0.75159176    -0.72300
V715        V  0.30565557  0.72489830  0.74072391     1.35200
V716        V  0.18684840  0.72274963  0.74131243     1.35200
C717        C  0.23798285  0.79408171  0.74010230     0.77100
C718        C  0.25619641  0.65268696  0.74607985     0.77200
C719        C  0.22149714  0.71747770  0.66741864     0.77000
C720        C  0.26840937  0.73040957  0.81271272     0.77000
O721        O  0.41687054  0.73690054  0.67529422    -0.72100
O722        O  0.44350826  0.71029139  0.78081645    -0.72400
O723        O  0.44237697  0.77766654  0.74391989    -0.72200
O724        O  0.41385920  0.67345965  0.71270213    -0.72200
O725        O  0.03745471  0.66649149  0.73731232    -0.72200
O726        O  0.05237172  0.77237824  0.72100202    -0.72200
O727        O  0.06526262  0.72685523  0.78336431    -0.72200
O728        O  0.03008904  0.70807794  0.67600658    -0.72300
V729        V  0.42865698  0.72495306  0.72835118     1.35200
V730        V  0.04726349  0.71886529  0.72929531     1.35200
C731        C  0.46744488  0.72071120  0.65674857     0.77100
C732        C  0.01156420  0.71495395  0.80080547     0.77200
C733        C  0.00233747  0.79404471  0.73451678     0.77000
C734        C  0.46971600  0.65158557  0.72531143     0.77000
C735        C  0.30592133  0.98684534  0.72779442    -0.02900
C736        C  0.44144136  0.98490955  0.73560499    -0.02900
C737        C  0.39919533  0.59219989  0.70050965    -0.09500
C738        C  0.45665952  0.61040098  0.72621755     0.06700
C739        C  0.00685929  0.58864419  0.75094726    -0.03300
C740        C  0.01455953  0.54952901  0.74250183    -0.07700
C741        C  0.45158763  0.52876400  0.72280158     0.05800
C742        C  0.39905663  0.55262518  0.69617415    -0.02800
Br743      Br  0.38521355  0.55195010  0.64112116    -0.02500
H744        H  0.35807052  0.60969786  0.68209750     0.09700
H745        H  0.06137478  0.53235093  0.75522916     0.07700
Br746      Br  0.03496614  0.61298291  0.80010424    -0.02900
C747        C  0.21432878  0.54734967  0.72793778    -0.09500
C748        C  0.28627781  0.52938414  0.74375683     0.06700
C749        C  0.33146257  0.55314173  0.77324481    -0.03300
C750        C  0.32482529  0.59278244  0.77185747    -0.07700
C751        C  0.26218253  0.61043773  0.74830679     0.05800
C752        C  0.20343784  0.58708313  0.72848566    -0.02800
Br753      Br  0.11760043  0.61034623  0.69561747    -0.02500
H754        H  0.16891840  0.52994674  0.71286301     0.09700
H755        H  0.36312449  0.61014710  0.79247726     0.07700
Br756      Br  0.33951559  0.54526949  0.82702809    -0.02900
C757        C  0.22856450  0.89493945  0.77477703    -0.09500
C758        C  0.21735017  0.91711924  0.74079183     0.06700
C759        C  0.21245223  0.89169162  0.70771696    -0.03300
C760        C  0.20253091  0.85283488  0.70883972    -0.07700
C761        C  0.23102956  0.83489409  0.74147518     0.05800
C762        C  0.24358399  0.85607874  0.77509039    -0.02800
Br763      Br  0.27171904  0.83228925  0.82219357    -0.02500
H764        H  0.21728118  0.90522807  0.80197418     0.09700
H765        H  0.18797234  0.83527690  0.68300917     0.07700
Br766      Br  0.28805307  0.88626721  0.67406590    -0.02900
C767        C  0.97443849  0.85578958  0.70323841    -0.09500
C768        C  0.00979373  0.83671239  0.73508474     0.06700
C769        C  0.05410101  0.85928725  0.76435587    -0.03300
C770        C  0.06551801  0.89847739  0.75956495    -0.07700
C771        C  0.04296202  0.91700444  0.72503582     0.05800
C772        C  0.00249758  0.89160565  0.69537309    -0.02800
Br773      Br  0.54823840  0.87323466  0.65230955    -0.02500
H774        H  0.43745824  0.83924098  0.68102469     0.09700
H775        H  0.08936565  0.91540931  0.78429783     0.07700
Br776      Br  0.07790711  0.84262189  0.81501052    -0.02900
C777        C  0.47938222  0.73968420  0.90052524    -0.09500
C778        C  0.03202572  0.71916136  0.92691096     0.06700
C779        C  0.07299421  0.69086138  0.90758433    -0.03300
C780        C  0.06629908  0.68814332  0.86679819    -0.07700
C781        C  0.02110953  0.71403781  0.84332403     0.05800
C782        C  0.47957159  0.74054354  0.86117446    -0.02800
Br783      Br  0.44549637  0.78424539  0.83316707    -0.02500
H784        H  0.44308902  0.75880937  0.91088690     0.09700
H785        H  0.09297339  0.66468941  0.85384757     0.07700
Br786      Br  0.10555020  0.64597449  0.93020660    -0.02900
C787        C  0.15211339  0.74264527  0.60612733    -0.09500
C788        C  0.20663643  0.71706381  0.62379253     0.06700
C789        C  0.24721106  0.69486174  0.59914377    -0.03300
C790        C  0.23970586  0.70202697  0.55938023    -0.07700
C791        C  0.18475340  0.72801896  0.53876665     0.05800
C792        C  0.14832131  0.75154006  0.56718402    -0.02800
Br793      Br  0.14800846  0.80510708  0.57816132    -0.02500
H794        H  0.11657686  0.75831774  0.62474215     0.09700
H795        H  0.28468556  0.68804368  0.54577362     0.07700
Br796      Br  0.31439656  0.65382510  0.61788148    -0.02900
C797        C  0.04360006  0.84277754  0.94796302    -0.09500
C798        C  0.03015948  0.86007870  0.98119642     0.06700
C799        C  0.01827697  0.83756013  0.51091737    -0.03300
C800        C  0.02423032  0.79733024  0.50740997    -0.07700
C801        C  0.02684052  0.77752656  0.97285068     0.05800
C802        C  0.02533650  0.80463859  0.94161745    -0.02800
Br803      Br  0.93495753  0.82988251  0.90888207    -0.02500
H804        H  0.06627387  0.86004884  0.92679662     0.09700
H805        H  0.02493444  0.78050610  0.53128584     0.07700
Br806      Br  0.99709802  0.86406509  0.55521207    -0.02900
C807        C  0.48522652  0.94043598  0.83938086    -0.09500
C808        C  0.49258593  0.97186275  0.86476437     0.06700
C809        C  0.99565544  0.50591969  0.84798935    -0.03300
C810        C  0.48344821  0.50909741  0.80821224    -0.07700
C811        C  0.46052259  0.97964971  0.78132754     0.05800
C812        C  0.46041891  0.94428475  0.79928995    -0.02800
Br813      Br  0.40397463  0.90185479  0.77385979    -0.02500
H814        H  0.48957937  0.91272986  0.85091338     0.09700
H815        H  0.98204871  0.53745312  0.80086734     0.07700
Br816      Br  0.02071926  0.55082641  0.87786319    -0.02900
C817        C  0.48743829  0.98589869  0.61569551    -0.09500
C818        C  0.03922807  0.96644581  0.59555395     0.06700
C819        C  0.10073348  0.94651636  0.61696882    -0.03300
C820        C  0.11366074  0.95004520  0.65710353    -0.07700
C821        C  0.05731036  0.96679415  0.67830573     0.05800
C822        C  0.00475548  0.99021566  0.65582419    -0.02800
Br823      Br  0.55681642  0.53465336  0.65730983    -0.02500
H824        H  0.44024794  0.50147223  0.59896389     0.09700
H825        H  0.16896822  0.94045894  0.67045652     0.07700
Br826      Br  0.15624699  0.90827464  0.59399675    -0.02500
C827        C  0.22933046  0.79670165  0.51017150    -0.09500
C828        C  0.19298071  0.77343524  0.98007874     0.06700
C829        C  0.18418790  0.79297886  0.94364600    -0.03300
C830        C  0.20857704  0.83125167  0.94137922    -0.07700
C831        C  0.23798833  0.85284253  0.97388178     0.05800
C832        C  0.24608023  0.83477534  0.50803210    -0.02800
Br833      Br  0.28139069  0.86183401  0.55312231    -0.02500
H834        H  0.25141556  0.78481536  0.53632132     0.09700
H835        H  0.20169061  0.84461346  0.91411211     0.07700
Br836      Br  0.14205616  0.77513239  0.89341962    -0.02900
C837        C  0.22943991  0.99841409  0.61286093    -0.09500
C838        C  0.27687702  0.97096352  0.59890024     0.06700
C839        C  0.33204703  0.95293774  0.62530910    -0.03300
C840        C  0.33989046  0.96144334  0.66452811    -0.07700
C841        C  0.29087190  0.98716726  0.68122896     0.05800
C842        C  0.23895237  0.00914841  0.65212292    -0.02800
Br843      Br  0.21642686  0.56267768  0.64669726    -0.02500
H844        H  0.18904450  0.01362884  0.59179749     0.09700
H845        H  0.38375303  0.94510853  0.68235289     0.07700
Br846      Br  0.39400549  0.91359514  0.60923637    -0.02900
C847        C  0.16966933  0.99196037  0.85036742    -0.09500
C848        C  0.23174949  0.97151627  0.86993003     0.06700
C849        C  0.28490602  0.95487648  0.84837889    -0.03300
C850        C  0.27908766  0.96335104  0.80934111    -0.07700
C851        C  0.20744939  0.97517397  0.78698163     0.05800
C852        C  0.15917892  0.99622935  0.81016619    -0.02800
Br853      Br  0.15844452  0.04900466  0.81011414    -0.02500
H854        H  0.14243108  0.01053166  0.86879363     0.09700
H855        H  0.32093113  0.95324760  0.79367366     0.07700
Br856      Br  0.33872669  0.91063297  0.86814532    -0.02900
C857        C  0.50934966  0.70319503  0.55550142    -0.09500
C858        C  0.44294359  0.72028749  0.53293651     0.06700
C859        C  0.39067606  0.74071736  0.55421823    -0.03300
C860        C  0.39372424  0.73650640  0.59361006    -0.07700
C861        C  0.45586112  0.71700553  0.61447557     0.05800
C862        C  0.00896998  0.69694872  0.59419869    -0.02800
Br863      Br  0.06995810  0.65504933  0.61482294    -0.02500
H864        H  0.05368019  0.68793814  0.54172189     0.09700
H865        H  0.35126016  0.75146152  0.60933264     0.07700
Br866      Br  0.39903076  0.79213684  0.56045651    -0.02900
C867        C  0.43970196  0.64114677  0.51919920    -0.09500
C868        C  0.44340182  0.66462422  0.98720108     0.06700
C869        C  0.45301492  0.64301738  0.95384504    -0.03300
C870        C  0.47799272  0.60508017  0.95563498    -0.07700
C871        C  0.49328441  0.58541597  0.98878776     0.05800
C872        C  0.46859259  0.60374365  0.52091534    -0.02800
Br873      Br  0.46069433  0.57695979  0.56538677    -0.02500
H874        H  0.41151869  0.65129459  0.54304523     0.09700
H875        H  0.97522116  0.58971062  0.92972559     0.07700
Br876      Br  0.91248256  0.65518958  0.90234016    -0.02900
C877        C  0.24911526  0.69055489  0.90423780    -0.09500
C878        C  0.28100880  0.71481449  0.93367427     0.06700
C879        C  0.31147199  0.74742192  0.92182321    -0.03300
C880        C  0.30636317  0.75484044  0.88214417    -0.07700
C881        C  0.28060394  0.72690825  0.85422794     0.05800
C882        C  0.25462334  0.69386906  0.86646427    -0.02800
Br883      Br  0.23681545  0.64965377  0.83359523    -0.02500
H884        H  0.22575901  0.66647944  0.90943946     0.09700
H885        H  0.32115826  0.78194707  0.87408220     0.07700
Br886      Br  0.35581765  0.78172299  0.96078343    -0.02900
C887        C  0.21626584  0.64325761  0.00293498    -0.09500
C888        C  0.26757150  0.65874767  0.97828400     0.06700
C889        C  0.29849315  0.62755151  0.95637084    -0.03300
C890        C  0.31195424  0.59208853  0.97113627    -0.07700
C891        C  0.26475472  0.57843432  0.99559354     0.05800
C892        C  0.21654877  0.60462917  0.01229988    -0.02800
Br893      Br  0.16114990  0.58987956  0.05198671    -0.02500
H894        H  0.16965347  0.65994217  0.01291760     0.09700
H895        H  0.35034087  0.57201178  0.95851328     0.07700
Br896      Br  0.25394108  0.59971329  0.90830614    -0.02900
C897        C  0.78881472  0.20557579  0.47662223    -0.02900
C898        C  0.92504245  0.20918986  0.98857750    -0.02900
O899        O  0.70153851  0.01839791  0.50211863    -0.72100
O900        O  0.69283576  0.41587423  0.46344717    -0.72400
O901        O  0.70879716  0.45298129  0.03538537    -0.72200
O902        O  0.69076827  0.48335485  0.43163736    -0.72200
O903        O  0.80617955  0.45735988  0.43198825    -0.72200
O904        O  0.83011186  0.47178590  0.04024765    -0.72200
O905        O  0.81587641  0.41017457  0.48988487    -0.72200
O906        O  0.81410910  0.01690841  0.48174240    -0.72300
V907        V  0.69813228  0.46705368  0.48309368     1.35200
V908        V  0.81772678  0.46408157  0.48614112     1.35200
C909        C  0.76042926  0.03638677  0.49477326     0.77100
C910        C  0.75109633  0.39433968  0.47425191     0.77200
C911        C  0.77204382  0.46396875  0.05677987     0.77000
C912        C  0.74357001  0.47071266  0.41269832     0.77000
O913        O  0.95593806  0.41762918  0.46732376    -0.72100
O914        O  0.95198743  0.02236851  0.49493739    -0.72400
O915        O  0.94040354  0.48171272  0.42576331    -0.72200
O916        O  0.96636883  0.45806869  0.03257826    -0.72200
O917        O  0.58099102  0.48482173  0.03681079    -0.72200
O918        O  0.56007070  0.45989482  0.42892269    -0.72200
O919        O  0.56161960  0.02678900  0.47240066    -0.72200
O920        O  0.57884952  0.42167924  0.49488283    -0.72300
V921        V  0.95232504  0.47028829  0.47982064     1.35200
V922        V  0.57125055  0.47340109  0.48291730     1.35200
C923        C  0.52053563  0.40124194  0.48155210     0.77100
C924        C  0.00417529  0.04346338  0.48570295     0.77200
C925        C  0.99692785  0.47026835  0.40792331     0.77000
C926        C  0.52911033  0.46961252  0.05352690     0.77000
C927        C  0.67398939  0.23005614  0.98986570    -0.02900
C928        C  0.54077940  0.22998302  0.47240380    -0.02900
C929        C  0.56054952  0.46227990  0.22326621    -0.02900
C930        C  0.69447071  0.46348022  0.24123649    -0.02900
O931        O  0.79511870  0.27656532  0.22744420    -0.72100
O932        O  0.81671636  0.17329672  0.25549939    -0.72400
O933        O  0.78905527  0.20947818  0.18683847    -0.72200
O934        O  0.82136127  0.24060965  0.29375519    -0.72200
O935        O  0.70571581  0.21716206  0.29401824    -0.72200
O936        O  0.66866112  0.22914388  0.18686939    -0.72200
O937        O  0.69108121  0.16977981  0.23439682    -0.72200
O938        O  0.68593813  0.27505985  0.25166064    -0.72300
V939        V  0.80606898  0.22491040  0.24070582     1.35200
V940        V  0.68726243  0.22277864  0.24126731     1.35200
C941        C  0.73848590  0.29410741  0.24018253     0.77100
C942        C  0.75648625  0.15269579  0.24594176     0.77200
C943        C  0.72195906  0.21759799  0.16739756     0.77000
C944        C  0.76871806  0.23033202  0.31268065     0.77000
O945        O  0.91755815  0.23683752  0.17531548    -0.72100
O946        O  0.94383995  0.21023464  0.28080547    -0.72400
O947        O  0.94279783  0.27761385  0.24393034    -0.72200
O948        O  0.91436999  0.17341676  0.21269552    -0.72200
O949        O  0.53794250  0.16644550  0.23741654    -0.72200
O950        O  0.55289717  0.27233653  0.22110125    -0.72200
O951        O  0.56561395  0.22681549  0.28346525    -0.72200
O952        O  0.53082598  0.20796864  0.17611416    -0.72300
V953        V  0.92914709  0.22490101  0.22835231     1.35200
V954        V  0.54779834  0.21880866  0.22940065     1.35200
C955        C  0.96817665  0.22064008  0.15679882     0.77100
C956        C  0.51184773  0.21490732  0.30085766     0.77200
C957        C  0.50278832  0.29400123  0.23457343     0.77000
C958        C  0.97021771  0.15155025  0.22533362     0.77000
C959        C  0.80615124  0.48686392  0.22783883    -0.02900
C960        C  0.94166817  0.48493790  0.23565896    -0.02900
C961        C  0.89977327  0.09217670  0.20048522    -0.09500
C962        C  0.95718711  0.11036562  0.22622477     0.06700
C963        C  0.50743475  0.08858523  0.25095909    -0.03300
C964        C  0.51521909  0.04948808  0.24245633    -0.07700
C965        C  0.95220106  0.02874220  0.22273061     0.05800
C966        C  0.89967116  0.05260466  0.19611706    -0.02800
Br967      Br  0.88612555  0.05206629  0.14106410    -0.02500
H968        H  0.85866036  0.10969608  0.18208428     0.09700
H969        H  0.56206708  0.03233553  0.25518823     0.07700
Br970      Br  0.53622700  0.11294917  0.30004279    -0.02900
C971        C  0.71448282  0.04731591  0.22805204    -0.09500
C972        C  0.78663178  0.02940376  0.24373410     0.06700
C973        C  0.83193870  0.05321360  0.27311829    -0.03300
C974        C  0.82530512  0.09283928  0.27165589    -0.07700
C975        C  0.76243963  0.11044843  0.24821444     0.05800
C976        C  0.70354516  0.08705550  0.22856380    -0.02800
Br977      Br  0.61777810  0.11026301  0.19560983    -0.02500
H978        H  0.66905675  0.02990303  0.21299100     0.09700
H979        H  0.86387664  0.11023919  0.29213507     0.07700
Br980      Br  0.83953304  0.04566265  0.32693065    -0.02900
C981        C  0.72893359  0.39497348  0.27482105    -0.09500
C982        C  0.71761246  0.41712990  0.24082296     0.06700
C983        C  0.71252474  0.39168030  0.20775295    -0.03300
C984        C  0.70272399  0.35282130  0.20892393    -0.07700
C985        C  0.73147454  0.33491600  0.24154768     0.05800
C986        C  0.74400100  0.35611486  0.27515258    -0.02800
Br987      Br  0.77201259  0.33232724  0.32226453    -0.02500
H988        H  0.71769647  0.40527839  0.30201724     0.09700
H989        H  0.68797409  0.33523812  0.18312190     0.07700
Br990      Br  0.78768728  0.38625736  0.17387668    -0.02900
C991        C  0.47456619  0.35580453  0.20337799    -0.09500
C992        C  0.51016277  0.33668613  0.23515871     0.06700
C993        C  0.55446297  0.35926139  0.26443196    -0.03300
C994        C  0.56584048  0.39846335  0.25966118    -0.07700
C995        C  0.54316582  0.41701294  0.22514629     0.05800
C996        C  0.50256562  0.39163531  0.19551113    -0.02800
Br997      Br  0.04816772  0.37331205  0.15244059    -0.02500
H998        H  0.93739147  0.33930568  0.18119691     0.09700
H999        H  0.58970861  0.41538273  0.28440007     0.07700
Br1000     Br  0.57821341  0.34256222  0.31507382    -0.02900
C1001       C  0.97941984  0.23959864  0.40052114    -0.09500
C1002       C  0.53202903  0.21908801  0.42693038     0.06700
C1003       C  0.57308459  0.19079945  0.40760983    -0.03300
C1004       C  0.56650593  0.18811224  0.36683281    -0.07700
C1005       C  0.52126862  0.21398083  0.34336047     0.05800
C1006       C  0.97965990  0.24046164  0.36117466    -0.02800
Br1007     Br  0.94570412  0.28418285  0.33317546    -0.02500
H1008       H  0.94311752  0.25872715  0.41087711     0.09700
H1009       H  0.59335759  0.16470737  0.35387959     0.07700
Br1010     Br  0.60549650  0.14582851  0.43011000    -0.02900
C1011       C  0.65195541  0.24251373  0.10610080    -0.09500
C1012       C  0.70701982  0.21716241  0.12377909     0.06700
C1013       C  0.74786670  0.19509946  0.09914068    -0.03300
C1014       C  0.74020235  0.20225428  0.05937118    -0.07700
C1015       C  0.68483352  0.22808582  0.03875487     0.05800
C1016       C  0.64806306  0.25145502  0.06716966    -0.02800
Br1017     Br  0.64827267  0.30499281  0.07858006    -0.02500
H1018       H  0.61599325  0.25796967  0.12468772     0.09700
H1019       H  0.78513064  0.18827891  0.04572717     0.07700
Br1020     Br  0.81506413  0.15405181  0.11786639    -0.02900
C1021       C  0.54349363  0.34275686  0.44795475    -0.09500
C1022       C  0.52996737  0.36007166  0.48117341     0.06700
C1023       C  0.51854116  0.33747708  0.01114875    -0.03300
C1024       C  0.52454835  0.29727013  0.00756715    -0.07700
C1025       C  0.52677856  0.27749419  0.47284940     0.05800
C1026       C  0.52529393  0.30460426  0.44161500    -0.02800
Br1027     Br  0.43490660  0.32982963  0.40887229    -0.02500
H1028       H  0.56620619  0.36002293  0.42679591     0.09700
H1029       H  0.52527929  0.28044579  0.03145632     0.07700
Br1030     Br  0.49734600  0.36379671  0.05553782    -0.02900
C1031       C  0.98551929  0.44055524  0.33947736    -0.09500
C1032       C  0.99251510  0.47199758  0.36484044     0.06700
C1033       C  0.49531711  0.00612721  0.34792913    -0.03300
C1034       C  0.98335182  0.00927658  0.30813690    -0.07700
C1035       C  0.96072257  0.47971717  0.28138900     0.05800
C1036       C  0.96076868  0.44435995  0.29937911    -0.02800
Br1037     Br  0.90434014  0.40190419  0.27401339    -0.02500
H1038       H  0.99003755  0.41285605  0.35102834     0.09700
H1039       H  0.48193456  0.03757584  0.30073294     0.07700
Br1040     Br  0.52090032  0.05102186  0.37776162    -0.02900
C1041       C  0.98741262  0.48588223  0.11578337    -0.09500
C1042       C  0.53923617  0.46650105  0.09561282     0.06700
C1043       C  0.60081665  0.44660270  0.11701085    -0.03300
C1044       C  0.61379881  0.45008906  0.15715050    -0.07700
C1045       C  0.55744620  0.46679594  0.17837571     0.05800
C1046       C  0.50480975  0.49019997  0.15591012    -0.02800
Br1047     Br  0.05767585  0.03451931  0.15707268    -0.02500
H1048       H  0.94028242  0.00129880  0.09897732     0.09700
H1049       H  0.66911269  0.44049458  0.17049438     0.07700
Br1050     Br  0.65610008  0.40834716  0.09401119    -0.02500
C1051       C  0.72829834  0.29692463  0.01001286    -0.09500
C1052       C  0.69300490  0.27335222  0.48015425     0.06700
C1053       C  0.68415196  0.29292165  0.44374177    -0.03300
C1054       C  0.70851644  0.33119262  0.44150532    -0.07700
C1055       C  0.73800444  0.35274794  0.47401446     0.05800
C1056       C  0.74516046  0.33497810  0.00786777    -0.02800
Br1057     Br  0.78072956  0.36201771  0.05296409    -0.02500
H1058       H  0.75010003  0.28510161  0.03617568     0.09700
H1059       H  0.70157962  0.34458150  0.41425127     0.07700
Br1060     Br  0.64211351  0.27509517  0.39348904    -0.02900
C1061       C  0.72968472  0.49844719  0.11293231    -0.09500
C1062       C  0.77698213  0.47095619  0.09895359     0.06700
C1063       C  0.83213937  0.45289562  0.12534265    -0.03300
C1064       C  0.84005233  0.46139557  0.16457549    -0.07700
C1065       C  0.79113592  0.48716749  0.18128236     0.05800
C1066       C  0.73929406  0.50917798  0.15219132    -0.02800
Br1067     Br  0.71746260  0.06284935  0.14692197    -0.02500
H1068       H  0.68930568  0.51368655  0.09188173     0.09700
H1069       H  0.88384532  0.44502823  0.18240851     0.07700
Br1070     Br  0.89395725  0.41353301  0.10918901    -0.02900
C1071       C  0.66948140  0.49163875  0.35037552    -0.09500
C1072       C  0.73186859  0.47138357  0.36995171     0.06700
C1073       C  0.78525129  0.45491567  0.34841417    -0.03300
C1074       C  0.77941356  0.46344389  0.30938029    -0.07700
C1075       C  0.70768038  0.47516432  0.28701874     0.05800
C1076       C  0.65910932  0.49602013  0.31019576    -0.02800
Br1077     Br  0.65847940  0.54879458  0.31039816    -0.02500
H1078       H  0.64185553  0.51003823  0.36881230     0.09700
H1079       H  0.82130478  0.45340697  0.29369662     0.07700
Br1080     Br  0.83911294  0.41066156  0.36813637    -0.02900
C1081       C  0.00950811  0.20292543  0.05544915    -0.09500
C1082       C  0.94313257  0.22013490  0.03295687     0.06700
C1083       C  0.89128450  0.24067157  0.05434954    -0.03300
C1084       C  0.89471878  0.23663653  0.09375605    -0.07700
C1085       C  0.95657621  0.21693275  0.11453256     0.05800
C1086       C  0.50934517  0.19665546  0.09419277    -0.02800
Br1087     Br  0.57063404  0.15486187  0.11483315    -0.02500
H1088       H  0.55377761  0.18760237  0.04163288     0.09700
H1089       H  0.85281107  0.25191373  0.10952350     0.07700
Br1090     Br  0.89760521  0.29210808  0.05927440    -0.02900
C1091       C  0.93965943  0.14106915  0.01902020    -0.09500
C1092       C  0.94328638  0.16461480  0.48725766     0.06700
C1093       C  0.95309705  0.14300347  0.45393687    -0.03300
C1094       C  0.97808608  0.10507540  0.45577698    -0.07700
C1095       C  0.99312610  0.08543293  0.48893693     0.05800
C1096       C  0.96873260  0.10369840  0.02069673    -0.02800
Br1097     Br  0.96126370  0.07690830  0.06521581    -0.02500
H1098       H  0.91152298  0.15116218  0.04290190     0.09700
H1099       H  0.47547900  0.08967512  0.42985331     0.07700
Br1100     Br  0.41259146  0.15513350  0.40239193    -0.02900
C1101       C  0.74913989  0.19047793  0.40417770    -0.09500
C1102       C  0.78094964  0.21476124  0.43363208     0.06700
C1103       C  0.81144721  0.24736240  0.42179160    -0.03300
C1104       C  0.80641189  0.25478011  0.38211387    -0.07700
C1105       C  0.78080868  0.22683166  0.35419389     0.05800
C1106       C  0.75484764  0.19378924  0.36641059    -0.02800
Br1107     Br  0.73728103  0.14957272  0.33351812    -0.02500
H1108       H  0.72567376  0.16645261  0.40935122     0.09700
H1109       H  0.82121550  0.28188132  0.37405246     0.07700
Br1110     Br  0.85577440  0.28166070  0.46074990    -0.02900
C1111       C  0.71614085  0.14315619  0.50281629    -0.09500
C1112       C  0.76748766  0.15867609  0.47820553     0.06700
C1113       C  0.79847909  0.12750241  0.45628434    -0.03300
C1114       C  0.81188418  0.09201580  0.47100346    -0.07700
C1115       C  0.76463932  0.07833162  0.49542679     0.05800
C1116       C  0.71640951  0.10451835  0.51214949    -0.02800
Br1117     Br  0.66094209  0.08978475  0.55182971    -0.02500
H1118       H  0.66948786  0.15983044  0.51278211     0.09700
H1119       H  0.85035237  0.07195927  0.45839797     0.07700
Br1120     Br  0.75400303  0.09968051  0.40819671    -0.02900
C1121       C  0.78877224  0.20562500  0.97666247    -0.02900
C1122       C  0.92506813  0.20917785  0.48857790    -0.02900
O1123       O  0.70179249  0.01840500  0.00220863    -0.72100
O1124       O  0.69239923  0.41609034  0.96339101    -0.72400
O1125       O  0.70893712  0.45283290  0.53536481    -0.72200
O1126       O  0.69034603  0.48362957  0.93166307    -0.72200
O1127       O  0.80573738  0.45760695  0.93196304    -0.72200
O1128       O  0.83022735  0.47170843  0.54028229    -0.72200
O1129       O  0.81548891  0.41031374  0.98972234    -0.72200
O1130       O  0.81437273  0.01692407  0.98183339    -0.72300
V1131       V  0.69785253  0.46725581  0.98311585     1.35200
V1132       V  0.81743534  0.46423165  0.98609839     1.35200
C1133       C  0.76069786  0.03639484  0.99487346     0.77100
C1134       C  0.75066770  0.39451736  0.97407878     0.77200
C1135       C  0.77211145  0.46386900  0.55678052     0.77000
C1136       C  0.74313464  0.47099241  0.91270823     0.77000
O1137       O  0.95587589  0.41754546  0.96754575    -0.72100
O1138       O  0.95225612  0.02238055  0.99476955    -0.72400
O1139       O  0.94034837  0.48145832  0.92575368    -0.72200
O1140       O  0.96648283  0.45798539  0.53248464    -0.72200
O1141       O  0.58113251  0.48472315  0.53678810    -0.72200
O1142       O  0.56002443  0.45964593  0.92899475    -0.72200
O1143       O  0.56188106  0.02677522  0.97224260    -0.72200
O1144       O  0.57878081  0.42166014  0.99512789    -0.72300
V1145       V  0.95221828  0.47022559  0.97986659     1.35200
V1146       V  0.57113607  0.47333475  0.98296665     1.35200
C1147       C  0.52047743  0.40119046  0.98187352     0.77100
C1148       C  0.00441881  0.04345795  0.98548852     0.77200
C1149       C  0.99690364  0.46995734  0.90795511     0.77000
C1150       C  0.52921335  0.46949048  0.55346312     0.77000
C1151       C  0.67406727  0.22998617  0.48986945    -0.02900
C1152       C  0.54069281  0.23003726  0.97243867    -0.02900
C1153       C  0.56039383  0.46225956  0.72320835    -0.02900
C1154       C  0.69427884  0.46348944  0.74123046    -0.02900
O1155       O  0.79480973  0.27653470  0.72738412    -0.72100
O1156       O  0.81643633  0.17329516  0.75556579    -0.72400
O1157       O  0.78875356  0.20940675  0.68684886    -0.72200
O1158       O  0.82107039  0.24064889  0.79375549    -0.72200
O1159       O  0.70541115  0.21722970  0.79403532    -0.72200
O1160       O  0.66834404  0.22905487  0.68684958    -0.72200
O1161       O  0.69079229  0.16978469  0.73449034    -0.72200
O1162       O  0.68561335  0.27505428  0.75158871    -0.72300
V1163       V  0.80576856  0.22489522  0.74070975     1.35200
V1164       V  0.68695838  0.22277314  0.74127118     1.35200
C1165       C  0.73815722  0.29408691  0.74009582     0.77100
C1166       C  0.75618830  0.15270112  0.74603897     0.77200
C1167       C  0.72166895  0.21750459  0.66739071     0.77000
C1168       C  0.76842804  0.23038841  0.81269315     0.77000
O1169       O  0.91710151  0.23689648  0.67530905    -0.72100
O1170       O  0.94350656  0.21024654  0.78082030    -0.72400
O1171       O  0.94250496  0.27764445  0.74396247    -0.72200
O1172       O  0.91394265  0.17345809  0.71268214    -0.72200
O1173       O  0.53752859  0.16646283  0.73737327    -0.72200
O1174       O  0.55255141  0.27234129  0.72108030    -0.72200
O1175       O  0.56529745  0.22681343  0.78344725    -0.72200
O1176       O  0.53033279  0.20802864  0.67605932    -0.72300
V1177       V  0.92877405  0.22493652  0.72836089     1.35200
V1178       V  0.54740503  0.21882632  0.72936480     1.35200
C1179       C  0.96768466  0.22070004  0.65677039     0.77100
C1180       C  0.51154241  0.21492155  0.80086259     0.77200
C1181       C  0.50251269  0.29401420  0.73458430     0.77000
C1182       C  0.96976713  0.15157532  0.72529667     0.77000
C1183       C  0.80599631  0.48681003  0.72782049    -0.02900
C1184       C  0.94150541  0.48488859  0.73564284    -0.02900
C1185       C  0.89909598  0.09221451  0.70052707    -0.09500
C1186       C  0.95667447  0.11039759  0.72619087     0.06700
C1187       C  0.50699954  0.08861703  0.75091883    -0.03300
C1188       C  0.51467807  0.04951352  0.74244099    -0.07700
C1189       C  0.95152894  0.02878175  0.72276196     0.05800
C1190       C  0.89893072  0.05264283  0.69618050    -0.02800
Br1191     Br  0.88523595  0.05201809  0.64113793    -0.02500
H1192       H  0.85790869  0.10972125  0.68215196     0.09700
H1193       H  0.56157523  0.03235563  0.75512533     0.07700
Br1194     Br  0.53563174  0.11295963  0.80002187    -0.02900
C1195       C  0.71409991  0.04736534  0.72802340    -0.09500
C1196       C  0.78610981  0.02940831  0.74378311     0.06700
C1197       C  0.83132352  0.05317870  0.77324930    -0.03300
C1198       C  0.82477985  0.09281158  0.77181777    -0.07700
C1199       C  0.76207784  0.11045778  0.74830622     0.05800
C1200       C  0.70323619  0.08710482  0.72855182    -0.02800
Br1201     Br  0.61752002  0.11038387  0.69560818    -0.02500
H1202       H  0.66871287  0.02995995  0.71293830     0.09700
H1203       H  0.86322988  0.11018445  0.79237306     0.07700
Br1204     Br  0.83901029  0.04551124  0.82706440    -0.02900
C1205       C  0.72841777  0.39490693  0.77480072    -0.09500
C1206       C  0.71732893  0.41711485  0.74082965     0.06700
C1207       C  0.71250477  0.39169929  0.70774732    -0.03300
C1208       C  0.70264808  0.35283629  0.70884769    -0.07700
C1209       C  0.73116922  0.33489211  0.74147627     0.05800
C1210       C  0.74352871  0.35605391  0.77510493    -0.02800
Br1211     Br  0.77157548  0.33223263  0.82219801    -0.02500
H1212       H  0.71698035  0.40516139  0.80198529     0.09700
H1213       H  0.68810366  0.33528155  0.68301212     0.07700
Br1214     Br  0.78818466  0.38626233  0.67413979    -0.02900
C1215       C  0.47462922  0.35573659  0.70327311    -0.09500
C1216       C  0.50995246  0.33668692  0.73514159     0.06700
C1217       C  0.55411260  0.35930480  0.76442910    -0.03300
C1218       C  0.56544940  0.39850126  0.75962042    -0.07700
C1219       C  0.54302253  0.41698952  0.72506236     0.05800
C1220       C  0.50264525  0.39155778  0.69539946    -0.02800
Br1221     Br  0.04828075  0.37321147  0.65231351    -0.02500
H1222       H  0.93766112  0.33917561  0.68107384     0.09700
H1223       H  0.58919575  0.41546535  0.78434869     0.07700
Br1224     Br  0.57784497  0.34269384  0.81510534    -0.02900
C1225       C  0.97923995  0.23975282  0.90054956    -0.09500
C1226       C  0.53182667  0.21922681  0.92695988     0.06700
C1227       C  0.57274168  0.19091049  0.90768452    -0.03300
C1228       C  0.56605865  0.18811449  0.86690157    -0.07700
C1229       C  0.52097022  0.21401905  0.84338560     0.05800
C1230       C  0.97942853  0.24054621  0.86119026    -0.02800
Br1231     Br  0.94548211  0.28424405  0.83314567    -0.02500
H1232       H  0.94298245  0.25889273  0.91090631     0.09700
H1233       H  0.59269751  0.16461565  0.85400728     0.07700
Br1234     Br  0.60541865  0.14621004  0.93056730    -0.02900
C1235       C  0.65227473  0.24266013  0.60610766    -0.09500
C1236       C  0.70679592  0.21707402  0.62376492     0.06700
C1237       C  0.74731542  0.19485025  0.59910828    -0.03300
C1238       C  0.73972384  0.20199511  0.55933646    -0.07700
C1239       C  0.68475557  0.22799424  0.53873136     0.05800
C1240       C  0.64837962  0.25152886  0.56715429    -0.02800
Br1241     Br  0.64777047  0.30510399  0.57801055    -0.02500
H1242       H  0.61681100  0.25835752  0.62473496     0.09700
H1243       H  0.78467502  0.18800231  0.54571824     0.07700
Br1244     Br  0.81467897  0.15386663  0.61785708    -0.02900
C1245       C  0.54351900  0.34281026  0.94822463    -0.09500
C1246       C  0.53005413  0.36004663  0.98147706     0.06700
C1247       C  0.51803391  0.33755249  0.51082620    -0.03300
C1248       C  0.52401593  0.29731980  0.50733685    -0.07700
C1249       C  0.52670101  0.27751816  0.97298579     0.05800
C1250       C  0.52525377  0.30468256  0.94180239    -0.02800
Br1251     Br  0.43502775  0.32987839  0.90894138    -0.02500
H1252       H  0.56612239  0.36014752  0.92709010     0.09700
H1253       H  0.52470041  0.28049508  0.53120887     0.07700
Br1254     Br  0.49680558  0.36407434  0.55509894    -0.02900
C1255       C  0.98478089  0.44027207  0.83943030    -0.09500
C1256       C  0.99264090  0.47166722  0.86486065     0.06700
C1257       C  0.49510107  0.00613223  0.84786305    -0.03300
C1258       C  0.98290539  0.00930092  0.80808519    -0.07700
C1259       C  0.96063365  0.47956702  0.78139099     0.05800
C1260       C  0.96014232  0.44419418  0.79932439    -0.02800
Br1261     Br  0.90379343  0.40179964  0.77375525    -0.02500
H1262       H  0.98877917  0.41255275  0.85092536     0.09700
H1263       H  0.48127960  0.03760161  0.80068562     0.07700
Br1264     Br  0.52073169  0.05104452  0.87765269    -0.02900
C1265       C  0.98745959  0.48584903  0.61567592    -0.09500
C1266       C  0.53923332  0.46638274  0.59554100     0.06700
C1267       C  0.60072831  0.44645004  0.61695426    -0.03300
C1268       C  0.61368184  0.44999525  0.65709406    -0.07700
C1269       C  0.55735085  0.46675816  0.67830677     0.05800
C1270       C  0.50476935  0.49016188  0.65581453    -0.02800
Br1271     Br  0.05684170  0.03469959  0.65732685    -0.02500
H1272       H  0.94024176  0.00153690  0.59897717     0.09700
H1273       H  0.66900764  0.44042346  0.67044125     0.07700
Br1274     Br  0.65616578  0.40818705  0.59395406    -0.02500
C1275       C  0.72943013  0.29665138  0.51016085    -0.09500
C1276       C  0.69269583  0.27345610  0.98001334     0.06700
C1277       C  0.68401037  0.29299032  0.94357359    -0.03300
C1278       C  0.70834351  0.33128170  0.94130171    -0.07700
C1279       C  0.73750834  0.35291827  0.97381684     0.05800
C1280       C  0.74617489  0.33472228  0.50804155    -0.02800
Br1281     Br  0.78147564  0.36174836  0.55315117    -0.02500
H1282       H  0.75154224  0.28475661  0.53630893     0.09700
H1283       H  0.70154461  0.34462569  0.91402721     0.07700
Br1284     Br  0.64189264  0.27514157  0.89337498    -0.02900
C1285       C  0.72946624  0.49832108  0.61288787    -0.09500
C1286       C  0.77691390  0.47087084  0.59893931     0.06700
C1287       C  0.83212004  0.45287160  0.62534568    -0.03300
C1288       C  0.84001171  0.46140702  0.66455849    -0.07700
C1289       C  0.79095600  0.48711646  0.68125413     0.05800
C1290       C  0.73898619  0.50907434  0.65214287    -0.02800
Br1291     Br  0.71648026  0.06276763  0.64676604    -0.02500
H1292       H  0.68905432  0.51352019  0.59181836     0.09700
H1293       H  0.88390972  0.44509008  0.68238257     0.07700
Br1294     Br  0.89403961  0.41351969  0.60927351    -0.02900
C1295       C  0.67006029  0.49245930  0.85040820    -0.09500
C1296       C  0.73149569  0.47165843  0.86998051     0.06700
C1297       C  0.78443519  0.45477999  0.84846450    -0.03300
C1298       C  0.77887155  0.46322542  0.80943787    -0.07700
C1299       C  0.70746432  0.47523025  0.78702745     0.05800
C1300       C  0.65961569  0.49661252  0.81018935    -0.02800
Br1301     Br  0.65898067  0.54940355  0.80988043    -0.02500
H1302       H  0.64344297  0.51131000  0.86880692     0.09700
H1303       H  0.82066524  0.45298607  0.79382821     0.07700
Br1304     Br  0.83813192  0.41054435  0.86833837    -0.02900
C1305       C  0.00940118  0.20317431  0.55546649    -0.09500
C1306       C  0.94295676  0.22027043  0.53292496     0.06700
C1307       C  0.89070800  0.24067329  0.55423690    -0.03300
C1308       C  0.89384599  0.23645272  0.59363558    -0.07700
C1309       C  0.95607532  0.21698933  0.61448689     0.05800
C1310       C  0.50918278  0.19692755  0.59418065    -0.02800
Br1311     Br  0.57025376  0.15503029  0.61475326    -0.02500
H1312       H  0.55371654  0.18792802  0.54165873     0.09700
H1313       H  0.85136052  0.25136954  0.60937712     0.07700
Br1314     Br  0.89915846  0.29208592  0.56057156    -0.02900
C1315       C  0.93953919  0.14114812  0.51918791    -0.09500
C1316       C  0.94318760  0.16459570  0.98711234     0.06700
C1317       C  0.95261830  0.14298061  0.95372531    -0.03300
C1318       C  0.97767999  0.10504961  0.95550017    -0.07700
C1319       C  0.99328042  0.08542608  0.98867481     0.05800
C1320       C  0.96834081  0.10373000  0.52089495    -0.02800
Br1321     Br  0.96031450  0.07693864  0.56533935    -0.02500
H1322       H  0.91137881  0.15131337  0.54303517     0.09700
H1323       H  0.47467244  0.08965569  0.92955860     0.07700
Br1324     Br  0.41218471  0.15519052  0.90220230    -0.02900
C1325       C  0.74886852  0.19055866  0.90423069    -0.09500
C1326       C  0.78085991  0.21480937  0.93367448     0.06700
C1327       C  0.81134567  0.24741214  0.92182631    -0.03300
C1328       C  0.80627539  0.25482663  0.88214335    -0.07700
C1329       C  0.78051044  0.22689667  0.85421794     0.05800
C1330       C  0.75439243  0.19388408  0.86644831    -0.02800
Br1331     Br  0.73648638  0.14966540  0.83357748    -0.02500
H1332       H  0.72541554  0.16653014  0.90940621     0.09700
H1333       H  0.82115018  0.28192271  0.87408743     0.07700
Br1334     Br  0.85559133  0.28175067  0.96078765    -0.02900
C1335       C  0.71652714  0.14316570  0.00309412    -0.09500
C1336       C  0.76750530  0.15870985  0.97831511     0.06700
C1337       C  0.79817405  0.12753078  0.95627629    -0.03300
C1338       C  0.81184535  0.09204624  0.97099006    -0.07700
C1339       C  0.76489558  0.07833954  0.99553110     0.05800
C1340       C  0.71680673  0.10450530  0.01235953    -0.02800
Br1341     Br  0.66123653  0.08963884  0.05194696    -0.02500
H1342       H  0.66996968  0.15981522  0.01316661     0.09700
H1343       H  0.85011955  0.07198984  0.95825767     0.07700
Br1344     Br  0.75304942  0.09970685  0.90829423    -0.02900
C1345       C  0.78884455  0.70556631  0.47666519    -0.02900
C1346       C  0.92519754  0.70920726  0.98857622    -0.02900
O1347       O  0.70169980  0.51833641  0.50219493    -0.72100
O1348       O  0.69272841  0.91592158  0.46340263    -0.72400
O1349       O  0.70914913  0.95290053  0.03537039    -0.72200
O1350       O  0.69062340  0.98340362  0.43155749    -0.72200
O1351       O  0.80604970  0.95741818  0.43193665    -0.72200
O1352       O  0.83043919  0.97175793  0.04024706    -0.72200
O1353       O  0.81578350  0.91024554  0.48982745    -0.72200
O1354       O  0.81428467  0.51684498  0.48182911    -0.72300
V1355       V  0.69800557  0.96711320  0.48303267     1.35200
V1356       V  0.81759948  0.96415390  0.48607692     1.35200
C1357       C  0.76060400  0.53632663  0.49485847     0.77100
C1358       C  0.75101494  0.89439505  0.47419840     0.77200
C1359       C  0.77236175  0.96392375  0.05677015     0.77000
C1360       C  0.74345772  0.97076375  0.41263377     0.77000
O1361       O  0.95597856  0.91759472  0.46737876    -0.72100
O1362       O  0.95215701  0.52239912  0.49494235    -0.72400
O1363       O  0.94036461  0.98163375  0.42575539    -0.72200
O1364       O  0.96665932  0.95801596  0.03243540    -0.72200
O1365       O  0.58129946  0.98477737  0.03668897    -0.72200
O1366       O  0.56006153  0.95983252  0.42895357    -0.72200
O1367       O  0.56179738  0.52679921  0.47243084    -0.72200
O1368       O  0.57886981  0.92169742  0.49495090    -0.72300
V1369       V  0.95225969  0.97025266  0.47983665     1.35200
V1370       V  0.57117477  0.97340229  0.48293300     1.35200
C1371       C  0.52059540  0.90123402  0.48162964     0.77100
C1372       C  0.00437130  0.54347862  0.48570774     0.77200
C1373       C  0.99692206  0.97018032  0.40793442     0.77000
C1374       C  0.52943431  0.96954101  0.05339886     0.77000
C1375       C  0.67416503  0.73004549  0.98987360    -0.02900
C1376       C  0.54079344  0.73000565  0.47243019    -0.02900
C1377       C  0.56087786  0.96223233  0.22317833    -0.02900
C1378       C  0.69477869  0.96345029  0.24117700    -0.02900
O1379       O  0.79518099  0.77653465  0.22745987    -0.72100
O1380       O  0.81670883  0.67328890  0.25555035    -0.72400
O1381       O  0.78910019  0.70945504  0.18687178    -0.72200
O1382       O  0.82136219  0.74060642  0.29379663    -0.72200
O1383       O  0.70571350  0.71715694  0.29404254    -0.72200
O1384       O  0.66871152  0.72913553  0.18687834    -0.72200
O1385       O  0.69107301  0.66980144  0.23442910    -0.72200
O1386       O  0.68597933  0.77505908  0.25166568    -0.72300
V1387       V  0.80609625  0.72489443  0.24074199     1.35200
V1388       V  0.68728219  0.72278218  0.24128596     1.35200
C1389       C  0.73854521  0.79408743  0.24017880     0.77100
C1390       C  0.75644866  0.65270827  0.24598873     0.77200
C1391       C  0.72203107  0.71758687  0.16741645     0.77000
C1392       C  0.76871628  0.73031419  0.31271520     0.77000
O1393       O  0.91751888  0.73686780  0.17527649    -0.72100
O1394       O  0.94382725  0.71029944  0.28078819    -0.72400
O1395       O  0.94286723  0.77765401  0.24387642    -0.72200
O1396       O  0.91427764  0.67346541  0.21268495    -0.72200
O1397       O  0.53785025  0.66646886  0.23736929    -0.72200
O1398       O  0.55296788  0.77232725  0.22104620    -0.72200
O1399       O  0.56562732  0.72682657  0.28343152    -0.72200
O1400       O  0.53077815  0.70800018  0.17606263    -0.72300
V1401       V  0.92913430  0.72494644  0.22832261     1.35200
V1402       V  0.54777826  0.71881979  0.22935506     1.35200
C1403       C  0.96813725  0.72067837  0.15675508     0.77100
C1404       C  0.51184121  0.71495744  0.30083931     0.77200
C1405       C  0.50288315  0.79400909  0.23450435     0.77000
C1406       C  0.97010523  0.65158881  0.22530632     0.77000
C1407       C  0.80648088  0.98682805  0.22779198    -0.02900
C1408       C  0.94201032  0.98488238  0.23560530    -0.02900
C1409       C  0.89944056  0.59223536  0.20055214    -0.09500
C1410       C  0.95702111  0.61041361  0.22621522     0.06700
C1411       C  0.50730935  0.58863779  0.25092664    -0.03300
C1412       C  0.51496413  0.54953198  0.24247002    -0.07700
C1413       C  0.95183936  0.52879986  0.22279929     0.05800
C1414       C  0.89924756  0.55266416  0.19620990    -0.02800
Br1415     Br  0.88562763  0.55213567  0.14115373    -0.02500
H1416       H  0.85822520  0.60975477  0.18219800     0.09700
H1417       H  0.56186148  0.53238939  0.25517865     0.07700
Br1418     Br  0.53628416  0.61303435  0.29997445    -0.02900
C1419       C  0.71423039  0.54736757  0.22810713    -0.09500
C1420       C  0.78631221  0.52943169  0.24381856     0.06700
C1421       C  0.83163213  0.55323363  0.27321374    -0.03300
C1422       C  0.82512985  0.59285373  0.27171945    -0.07700
C1423       C  0.76230983  0.61047320  0.24826722     0.05800
C1424       C  0.70338128  0.58710965  0.22859620    -0.02800
Br1425     Br  0.61771354  0.61036833  0.19560132    -0.02500
H1426       H  0.66882609  0.52995819  0.21303623     0.09700
H1427       H  0.86376860  0.61024822  0.29217890     0.07700
Br1428     Br  0.83906921  0.54579541  0.32705353    -0.02900
C1429       C  0.72912052  0.89494315  0.27478086    -0.09500
C1430       C  0.71787891  0.91709671  0.24077932     0.06700
C1431       C  0.71276231  0.89164069  0.20771290    -0.03300
C1432       C  0.70287057  0.85278843  0.20889445    -0.07700
C1433       C  0.73158068  0.83488798  0.24152587     0.05800
C1434       C  0.74416549  0.85608801  0.27512350    -0.02800
Br1435     Br  0.77220477  0.83230804  0.32224085    -0.02500
H1436       H  0.71781006  0.90524015  0.30196716     0.09700
H1437       H  0.68811548  0.83519698  0.18309880     0.07700
Br1438     Br  0.78797457  0.88615406  0.17386194    -0.02900
C1439       C  0.47486976  0.85577126  0.20325143    -0.09500
C1440       C  0.51033480  0.83667378  0.23506513     0.06700
C1441       C  0.55463964  0.85923419  0.26434151    -0.03300
C1442       C  0.56603560  0.89843246  0.25957161    -0.07700
C1443       C  0.54347264  0.91696769  0.22504178     0.05800
C1444       C  0.50294565  0.89158162  0.19538462    -0.02800
Br1445     Br  0.04855992  0.87324494  0.15228234    -0.02500
H1446       H  0.93779345  0.83925275  0.18104765     0.09700
H1447       H  0.58986791  0.91535566  0.28431356     0.07700
Br1448     Br  0.57843857  0.84249079  0.31496662    -0.02900
C1449       C  0.97940718  0.73967392  0.40052827    -0.09500
C1450       C  0.53199103  0.71914303  0.42694530     0.06700
C1451       C  0.57302381  0.69086258  0.40763198    -0.03300
C1452       C  0.56642696  0.68814802  0.36685033    -0.07700
C1453       C  0.52125969  0.71403480  0.34335953     0.05800
C1454       C  0.97967264  0.74053115  0.36117784    -0.02800
Br1455     Br  0.94575936  0.78425338  0.33317923    -0.02500
H1456       H  0.94312445  0.75880935  0.41088209     0.09700
H1457       H  0.59320553  0.66471324  0.35391855     0.07700
Br1458     Br  0.60555768  0.64599836  0.43026575    -0.02900
C1459       C  0.65244912  0.74268504  0.10613520    -0.09500
C1460       C  0.70715131  0.71717286  0.12379348     0.06700
C1461       C  0.74775373  0.69499707  0.09913689    -0.03300
C1462       C  0.74007392  0.70213093  0.05935940    -0.07700
C1463       C  0.68493731  0.72806710  0.03875005     0.05800
C1464       C  0.64848092  0.75155749  0.06717910    -0.02800
Br1465     Br  0.64800454  0.80512445  0.07814476    -0.02500
H1466       H  0.61686736  0.75831811  0.12475851     0.09700
H1467       H  0.78500347  0.68813691  0.04572889     0.07700
Br1468     Br  0.81516780  0.65402343  0.11788702    -0.02900
C1469       C  0.54360674  0.84277229  0.44803468    -0.09500
C1470       C  0.53010978  0.86007566  0.48126016     0.06700
C1471       C  0.51836670  0.83755762  0.01087936    -0.03300
C1472       C  0.52432747  0.79733355  0.00737315    -0.07700
C1473       C  0.52682398  0.77751216  0.47290511     0.05800
C1474       C  0.52535606  0.80462946  0.44168037    -0.02800
Br1475     Br  0.43496771  0.82985546  0.40894381    -0.02500
H1476       H  0.56627419  0.86004904  0.42687211     0.09700
H1477       H  0.52503829  0.78051006  0.03125353     0.07700
Br1478     Br  0.49712373  0.86403224  0.05517132    -0.02900
C1479       C  0.98551981  0.94045334  0.33946636    -0.09500
C1480       C  0.99262488  0.97188943  0.36484321     0.06700
C1481       C  0.49495917  0.50627288  0.34792290    -0.03300
C1482       C  0.98284862  0.50939159  0.30813609    -0.07700
C1483       C  0.96107240  0.97963183  0.28135883     0.05800
C1484       C  0.96092916  0.94427492  0.29935167    -0.02800
Br1485     Br  0.90453952  0.90182673  0.27395025    -0.02500
H1486       H  0.98988104  0.91275102  0.35100921     0.09700
H1487       H  0.48134059  0.53770379  0.30070573     0.07700
Br1488     Br  0.52079504  0.55117638  0.37768735    -0.02900
C1489       C  0.98769604  0.98576460  0.11566989    -0.09500
C1490       C  0.53957021  0.96640880  0.09549145     0.06700
C1491       C  0.60119166  0.94652925  0.11689009    -0.03300
C1492       C  0.61418073  0.95002306  0.15704124    -0.07700
C1493       C  0.55781664  0.96673681  0.17827543     0.05800
C1494       C  0.50517747  0.99012769  0.15579857    -0.02800
Br1495     Br  0.05717569  0.53463949  0.15729626    -0.02500
H1496       H  0.94006242  0.50144610  0.09908382     0.09700
H1497       H  0.66950394  0.94043152  0.17038483     0.07700
Br1498     Br  0.65639679  0.90824113  0.09386451    -0.02500
C1499       C  0.72923704  0.79676790  0.01010425    -0.09500
C1500       C  0.69301489  0.77337784  0.48015901     0.06700
C1501       C  0.68420336  0.79292840  0.44373839    -0.03300
C1502       C  0.70856279  0.83120124  0.44147551    -0.07700
C1503       C  0.73796263  0.85279265  0.47397632     0.05800
C1504       C  0.74605371  0.83482596  0.00796321    -0.02800
Br1505     Br  0.78146252  0.86184662  0.05305456    -0.02500
H1506       H  0.75127401  0.78489909  0.03625905     0.09700
H1507       H  0.70165320  0.84456512  0.41420883     0.07700
Br1508     Br  0.64216962  0.77506344  0.39351574    -0.02900
C1509       C  0.73006647  0.99846082  0.11291342    -0.09500
C1510       C  0.77725813  0.97091517  0.09894079     0.06700
C1511       C  0.83235877  0.95282842  0.12533582    -0.03300
C1512       C  0.84027675  0.96132438  0.16456020    -0.07700
C1513       C  0.79145464  0.98713826  0.18125227     0.05800
C1514       C  0.73973693  0.00920620  0.15216876    -0.02800
Br1515     Br  0.71688140  0.56278675  0.14687074    -0.02500
H1516       H  0.68976942  0.01374217  0.09186920     0.09700
H1517       H  0.88403577  0.94494408  0.18240033     0.07700
Br1518     Br  0.89422211  0.91348049  0.10922359    -0.02900
C1519       C  0.66976518  0.99182047  0.35028471    -0.09500
C1520       C  0.73186373  0.97142455  0.36989087     0.06700
C1521       C  0.78521996  0.95486333  0.34839499    -0.03300
C1522       C  0.77956090  0.96337148  0.30936479    -0.07700
C1523       C  0.70794196  0.97516155  0.28695810     0.05800
C1524       C  0.65949454  0.99615243  0.31009996    -0.02800
Br1525     Br  0.65898992  0.04893547  0.31022109    -0.02500
H1526       H  0.64237683  0.01034480  0.36869670     0.09700
H1527       H  0.82147004  0.95327054  0.29372518     0.07700
Br1528     Br  0.83902949  0.91062696  0.36819621    -0.02900
C1529       C  0.00968558  0.70314201  0.05542709    -0.09500
C1530       C  0.94320574  0.72025732  0.03292461     0.06700
C1531       C  0.89110414  0.74069467  0.05427667    -0.03300
C1532       C  0.89440289  0.73652631  0.09367628    -0.07700
C1533       C  0.95655606  0.71699557  0.11448306     0.05800
C1534       C  0.50955672  0.69687221  0.09416106    -0.02800
Br1535     Br  0.57078669  0.65503246  0.11475655    -0.02500
H1536       H  0.55395658  0.68784969  0.04160492     0.09700
H1537       H  0.85209977  0.75153857  0.10944210     0.07700
Br1538     Br  0.89886753  0.79212306  0.06019541    -0.02900
C1539       C  0.93984599  0.64113422  0.01914710    -0.09500
C1540       C  0.94334515  0.66461769  0.48724587     0.06700
C1541       C  0.95306132  0.64298988  0.45391216    -0.03300
C1542       C  0.97814232  0.60507402  0.45575874    -0.07700
C1543       C  0.99332820  0.58544858  0.48892804     0.05800
C1544       C  0.96871588  0.60371976  0.02081994    -0.02800
Br1545     Br  0.96100052  0.57691266  0.06530452    -0.02500
H1546       H  0.91176724  0.65127322  0.04302943     0.09700
H1547       H  0.47547239  0.58965454  0.42987450     0.07700
Br1548     Br  0.41257914  0.65507505  0.40236977    -0.02900
C1549       C  0.74919231  0.69045201  0.40422451    -0.09500
C1550       C  0.78098501  0.71473020  0.43367518     0.06700
C1551       C  0.81149494  0.74733435  0.42182923    -0.03300
C1552       C  0.80644946  0.75474486  0.38214927    -0.07700
C1553       C  0.78079327  0.72680357  0.35423017     0.05800
C1554       C  0.75479142  0.69376324  0.36645493    -0.02800
Br1555     Br  0.73704101  0.64954873  0.33357685    -0.02500
H1556       H  0.72577747  0.66638262  0.40940263     0.09700
H1557       H  0.82128172  0.78184683  0.37408483     0.07700
Br1558     Br  0.85580097  0.78165575  0.46078555    -0.02900
C1559       C  0.71629230  0.64310959  0.50293447    -0.09500
C1560       C  0.76756835  0.65864808  0.47829264     0.06700
C1561       C  0.79850732  0.62747055  0.45635422    -0.03300
C1562       C  0.81202147  0.59198540  0.47108679    -0.07700
C1563       C  0.76481630  0.57828050  0.49552103     0.05800
C1564       C  0.71658360  0.60446043  0.51225407    -0.02800
Br1565     Br  0.66110436  0.58968168  0.55191207    -0.02500
H1566       H  0.66963568  0.65977269  0.51291433     0.09700
H1567       H  0.85045981  0.57193494  0.45845370     0.07700
Br1568     Br  0.75373877  0.59960454  0.40833736    -0.02900
C1569       C  0.78892650  0.70562969  0.97665390    -0.02900
C1570       C  0.92508715  0.70918504  0.48858789    -0.02900
O1571       O  0.70155306  0.51851807  0.00227262    -0.72100
O1572       O  0.69292324  0.91596142  0.96341415    -0.72400
O1573       O  0.70885471  0.95291964  0.53532200    -0.72200
O1574       O  0.69076138  0.98345680  0.93164013    -0.72200
O1575       O  0.80618296  0.95747942  0.93194632    -0.72200
O1576       O  0.83013523  0.97180349  0.54021807    -0.72200
O1577       O  0.81598545  0.91024407  0.98979881    -0.72200
O1578       O  0.81410217  0.51698581  0.98187225    -0.72300
V1579       V  0.69823628  0.96713192  0.98309473     1.35200
V1580       V  0.81782700  0.96416148  0.98610034     1.35200
C1581       C  0.76048138  0.53647935  0.99492216     0.77100
C1582       C  0.75118887  0.89441703  0.97417061     0.77200
C1583       C  0.77203629  0.96396729  0.55673044     0.77000
C1584       C  0.74353846  0.97082438  0.91267980     0.77000
O1585       O  0.95609437  0.91759774  0.96731355    -0.72100
O1586       O  0.95200867  0.52238052  0.99482331    -0.72400
O1587       O  0.94053128  0.98160684  0.92567032    -0.72200
O1588       O  0.96643315  0.95798253  0.53251528    -0.72200
O1589       O  0.58102059  0.98477440  0.53678888    -0.72200
O1590       O  0.56017675  0.95979956  0.92883649    -0.72200
O1591       O  0.56167880  0.52670574  0.97231394    -0.72200
O1592       O  0.57901211  0.92168961  0.99487680    -0.72300
V1593       V  0.95246296  0.97025841  0.97974294     1.35200
V1594       V  0.57137533  0.97338749  0.98282107     1.35200
C1595       C  0.52070904  0.90123300  0.98158482     0.77100
C1596       C  0.00425925  0.54343603  0.98557862     0.77200
C1597       C  0.99705745  0.97014726  0.90784127     0.77000
C1598       C  0.52913739  0.96952955  0.55347400     0.77000
C1599       C  0.67408709  0.73000414  0.48989542    -0.02900
C1600       C  0.54086775  0.73002764  0.97240297    -0.02900
C1601       C  0.56033992  0.96226439  0.72319323    -0.02900
C1602       C  0.69423938  0.96346919  0.74119471    -0.02900
O1603       O  0.79464101  0.77652768  0.72739602    -0.72100
O1604       O  0.81639797  0.67329532  0.75558037    -0.72400
O1605       O  0.78858983  0.70940311  0.68686088    -0.72200
O1606       O  0.82100844  0.74065586  0.79375122    -0.72200
O1607       O  0.70537150  0.71721762  0.79407292    -0.72200
O1608       O  0.66816317  0.72901848  0.68687852    -0.72200
O1609       O  0.69074568  0.66974982  0.73453391    -0.72200
O1610       O  0.68544023  0.77503970  0.75160333    -0.72300
V1611       V  0.80565083  0.72489335  0.74071691     1.35200
V1612       V  0.68684617  0.72274702  0.74130426     1.35200
C1613       C  0.73799451  0.79407768  0.74011457     0.77100
C1614       C  0.75617896  0.65268175  0.74606079     0.77200
C1615       C  0.72149356  0.71749463  0.66741105     0.77000
C1616       C  0.76840459  0.73039024  0.81270544     0.77000
O1617       O  0.91683955  0.73692639  0.67528174    -0.72100
O1618       O  0.94350177  0.71029107  0.78079761    -0.72400
O1619       O  0.94236515  0.77767757  0.74391668    -0.72200
O1620       O  0.91384195  0.67347327  0.71267614    -0.72200
O1621       O  0.53746404  0.66647923  0.73735269    -0.72200
O1622       O  0.55238775  0.77235926  0.72100867    -0.72200
O1623       O  0.56526987  0.72685558  0.78338284    -0.72200
O1624       O  0.53011532  0.70804527  0.67602869    -0.72300
V1625       V  0.92864149  0.72496580  0.72833621     1.35200
V1626       V  0.54727920  0.71884918  0.72931673     1.35200
C1627       C  0.96741263  0.72074247  0.65673192     0.77100
C1628       C  0.51157014  0.71495699  0.80082401     0.77200
C1629       C  0.50235166  0.79402969  0.73451766     0.77000
C1630       C  0.96970709  0.65159741  0.72527154     0.77000
C1631       C  0.80591248  0.98684176  0.72779334    -0.02900
C1632       C  0.94143316  0.98491308  0.73560282    -0.02900
C1633       C  0.89916957  0.59220603  0.70048268    -0.09500
C1634       C  0.95665696  0.61041107  0.72617576     0.06700
C1635       C  0.50686571  0.58863007  0.75098464    -0.03300
C1636       C  0.51458497  0.54951918  0.74252632    -0.07700
C1637       C  0.95155990  0.52877119  0.72278666     0.05800
C1638       C  0.89902412  0.55262914  0.69615503    -0.02800
Br1639     Br  0.88520784  0.55195816  0.64109673    -0.02500
H1640       H  0.85803340  0.60970192  0.68207432     0.09700
H1641       H  0.56141032  0.53234655  0.75525487     0.07700
Br1642     Br  0.53502675  0.61295860  0.80013993    -0.02900
C1643       C  0.71427029  0.54734003  0.72796313    -0.09500
C1644       C  0.78625249  0.52938243  0.74375793     0.06700
C1645       C  0.83145762  0.55314297  0.77323250    -0.03300
C1646       C  0.82482008  0.59278210  0.77183791    -0.07700
C1647       C  0.76215234  0.61043263  0.74829967     0.05800
C1648       C  0.70337713  0.58707404  0.72850736    -0.02800
Br1649     Br  0.61753401  0.61032964  0.69563714    -0.02500
H1650       H  0.66885162  0.52993754  0.71289009     0.09700
H1651       H  0.86313261  0.61015016  0.79244806     0.07700
Br1652     Br  0.83950468  0.54528134  0.82701386    -0.02900
C1653       C  0.72857647  0.89493763  0.77477956    -0.09500
C1654       C  0.71735835  0.91711144  0.74079099     0.06700
C1655       C  0.71246048  0.89167954  0.70771810    -0.03300
C1656       C  0.70254925  0.85282365  0.70884749    -0.07700
C1657       C  0.73104286  0.83488898  0.74148592     0.05800
C1658       C  0.74360227  0.85607810  0.77509809    -0.02800
Br1659     Br  0.77176530  0.83229928  0.82220481    -0.02500
H1660       H  0.71730172  0.90523089  0.80197683     0.09700
H1661       H  0.68799459  0.83526086  0.68302011     0.07700
Br1662     Br  0.78798394  0.88627205  0.67402501    -0.02900
C1663       C  0.47446773  0.85577246  0.70323309    -0.09500
C1664       C  0.50981280  0.83669687  0.73508154     0.06700
C1665       C  0.55411008  0.85927212  0.76435460    -0.03300
C1666       C  0.56552121  0.89846408  0.75956720    -0.07700
C1667       C  0.54296873  0.91699253  0.72503693     0.05800
C1668       C  0.50252089  0.89159072  0.69537086    -0.02800
Br1669     Br  0.04821290  0.87324566  0.65231439    -0.02500
H1670       H  0.93742072  0.83925963  0.68103185     0.09700
H1671       H  0.58936190  0.91539454  0.78430250     0.07700
Br1672     Br  0.57794685  0.84259098  0.81500162    -0.02900
C1673       C  0.97937437  0.73968284  0.90051044    -0.09500
C1674       C  0.53203256  0.71916020  0.92692249     0.06700
C1675       C  0.57299961  0.69085971  0.90759726    -0.03300
C1676       C  0.56630616  0.68814503  0.86681201    -0.07700
C1677       C  0.52111862  0.71404187  0.84334058     0.05800
C1678       C  0.97956136  0.74053946  0.86115807    -0.02800
Br1679     Br  0.94549267  0.78424055  0.83314826    -0.02500
H1680       H  0.94307938  0.75880787  0.91087018     0.09700
H1681       H  0.59297820  0.66469190  0.85385969     0.07700
Br1682     Br  0.60554411  0.64596922  0.93021822    -0.02900
C1683       C  0.65211875  0.74266739  0.60612020    -0.09500
C1684       C  0.70664168  0.71708660  0.62378598     0.06700
C1685       C  0.74722046  0.69488419  0.59913954    -0.03300
C1686       C  0.73971204  0.70204409  0.55937546    -0.07700
C1687       C  0.68475753  0.72803414  0.53876086     0.05800
C1688       C  0.64832158  0.75155776  0.56717569    -0.02800
Br1689     Br  0.64798365  0.80512694  0.57814346    -0.02500
H1690       H  0.61658263  0.75834036  0.62473474     0.09700
H1691       H  0.78468895  0.68805761  0.54576915     0.07700
Br1692     Br  0.81440241  0.65384820  0.61788088    -0.02900
C1693       C  0.54360904  0.84277988  0.94797673    -0.09500
C1694       C  0.53019695  0.86007829  0.98121573     0.06700
C1695       C  0.51823028  0.83755591  0.51091719    -0.03300
C1696       C  0.52418608  0.79732666  0.50741213    -0.07700
C1697       C  0.52685859  0.77752528  0.97286228     0.05800
C1698       C  0.52533843  0.80464162  0.94163044    -0.02800
Br1699     Br  0.43495730  0.82988945  0.90890005    -0.02500
H1700       H  0.56627662  0.86005198  0.92680896     0.09700
H1701       H  0.52488442  0.78050548  0.53128905     0.07700
Br1702     Br  0.49702936  0.86406377  0.55520575    -0.02900
C1703       C  0.98529935  0.94044917  0.83938023    -0.09500
C1704       C  0.99265222  0.97187602  0.86476287     0.06700
C1705       C  0.49561333  0.50588197  0.84799411    -0.03300
C1706       C  0.98347285  0.50912548  0.80820537    -0.07700
C1707       C  0.96053718  0.97965993  0.78132719     0.05800
C1708       C  0.96045138  0.94429625  0.79929248    -0.02800
Br1709     Br  0.90398225  0.90186633  0.77387356    -0.02500
H1710       H  0.98967080  0.91274348  0.85091358     0.09700
H1711       H  0.48204549  0.53742672  0.80088177     0.07700
Br1712     Br  0.52073397  0.55077690  0.87788423    -0.02900
C1713       C  0.98746084  0.98590987  0.61569391    -0.09500
C1714       C  0.53920539  0.96643888  0.59555155     0.06700
C1715       C  0.60071853  0.94651126  0.61696265    -0.03300
C1716       C  0.61365286  0.95003594  0.65709896    -0.07700
C1717       C  0.55730637  0.96678356  0.67830512     0.05800
C1718       C  0.50474442  0.99020404  0.65582581    -0.02800
Br1719     Br  0.05680475  0.53466093  0.65733676    -0.02500
H1720       H  0.94025339  0.50148025  0.59895600     0.09700
H1721       H  0.66895652  0.94044571  0.67045181     0.07700
Br1722     Br  0.65622087  0.90827601  0.59397535    -0.02500
C1723       C  0.72930903  0.79671804  0.51015779    -0.09500
C1724       C  0.69301966  0.77341983  0.98010744     0.06700
C1725       C  0.68419681  0.79297455  0.94368222    -0.03300
C1726       C  0.70859001  0.83124593  0.94142444    -0.07700
C1727       C  0.73805006  0.85282292  0.97392800     0.05800
C1728       C  0.74605747  0.83479199  0.50801673    -0.02800
Br1729     Br  0.78139198  0.86185197  0.55310598    -0.02500
H1730       H  0.75138480  0.78483626  0.53631006     0.09700
H1731       H  0.70168035  0.84461715  0.91416185     0.07700
Br1732     Br  0.64206946  0.77513749  0.89344985    -0.02900
C1733       C  0.72942786  0.99841415  0.61286356    -0.09500
C1734       C  0.77687420  0.97096919  0.59889856     0.06700
C1735       C  0.83205433  0.95294529  0.62530435    -0.03300
C1736       C  0.83989071  0.96144324  0.66452554    -0.07700
C1737       C  0.79086405  0.98716265  0.68122886     0.05800
C1738       C  0.73894391  0.00914543  0.65212649    -0.02800
Br1739     Br  0.71645511  0.56269483  0.64673485    -0.02500
H1740       H  0.68902835  0.01363072  0.59180344     0.09700
H1741       H  0.88374724  0.94510462  0.68234964     0.07700
Br1742     Br  0.89402061  0.91360994  0.60922095    -0.02900
C1743       C  0.66959691  0.99186100  0.85036940    -0.09500
C1744       C  0.73177031  0.97147229  0.86993354     0.06700
C1745       C  0.78497012  0.95487477  0.84837954    -0.03300
C1746       C  0.77911761  0.96335566  0.80933936    -0.07700
C1747       C  0.70745267  0.97515538  0.78698323     0.05800
C1748       C  0.65911936  0.99616008  0.81017245    -0.02800
Br1749     Br  0.65842151  0.04893715  0.81018681    -0.02500
H1750       H  0.64227348  0.01038837  0.86880158     0.09700
H1751       H  0.82097483  0.95328250  0.79366467     0.07700
Br1752     Br  0.83883272  0.91063990  0.86813893    -0.02900
C1753       C  0.00931604  0.70320132  0.55549252    -0.09500
C1754       C  0.94292283  0.72029412  0.53292324     0.06700
C1755       C  0.89066394  0.74073766  0.55419785    -0.03300
C1756       C  0.89370954  0.73654419  0.59359167    -0.07700
C1757       C  0.95582507  0.71703468  0.61446065     0.05800
C1758       C  0.50902018  0.69693500  0.59420900    -0.02800
Br1759     Br  0.57004685  0.65504396  0.61483056    -0.02500
H1760       H  0.55371270  0.68793720  0.54172544     0.09700
H1761       H  0.85126147  0.75151612  0.60931019     0.07700
Br1762     Br  0.89900705  0.79215530  0.56039109    -0.02900
C1763       C  0.93970215  0.64114896  0.51918324    -0.09500
C1764       C  0.94341446  0.66462804  0.98721373     0.06700
C1765       C  0.95304840  0.64302011  0.95386299    -0.03300
C1766       C  0.97804704  0.60508700  0.95566119    -0.07700
C1767       C  0.99331572  0.58542493  0.98881430     0.05800
C1768       C  0.96859052  0.60374536  0.52089600    -0.02800
Br1769     Br  0.96066674  0.57695624  0.56536117    -0.02500
H1770       H  0.91151612  0.65129464  0.54302923     0.09700
H1771       H  0.47514003  0.58970656  0.92969541     0.07700
Br1772     Br  0.41247173  0.65519725  0.90232505    -0.02900
C1773       C  0.74910981  0.69054135  0.90423482    -0.09500
C1774       C  0.78100435  0.71480331  0.93367033     0.06700
C1775       C  0.81146498  0.74740976  0.92181470    -0.03300
C1776       C  0.80635097  0.75482529  0.88213458    -0.07700
C1777       C  0.78059196  0.72689129  0.85422094     0.05800
C1778       C  0.75461620  0.69385263  0.86646007    -0.02800
Br1779     Br  0.73680069  0.64963694  0.83359118    -0.02500
H1780       H  0.72574533  0.66646796  0.90943792     0.09700
H1781       H  0.82115323  0.78192985  0.87406968     0.07700
Br1782     Br  0.85582028  0.78171287  0.96076859    -0.02900
C1783       C  0.71628448  0.64323615  0.00292572    -0.09500
C1784       C  0.76759138  0.65873477  0.97828061     0.06700
C1785       C  0.79852122  0.62754428  0.95636372    -0.03300
C1786       C  0.81199769  0.59207958  0.97112514    -0.07700
C1787       C  0.76477980  0.57841528  0.99556938     0.05800
C1788       C  0.71656466  0.60460469  0.01227892    -0.02800
Br1789     Br  0.66112155  0.58984305  0.05194653    -0.02500
H1790       H  0.66966154  0.65991570  0.01290610     0.09700
H1791       H  0.85039158  0.57200747  0.95849978     0.07700
Br1792     Br  0.75393537  0.59970261  0.90830663    -0.02900
loop_ 
_geom_bond_atom_site_label_1 
_geom_bond_atom_site_label_2 
_geom_bond_distance 
_geom_bond_site_symmetry_2 
_ccdc_geom_bond_type 
C1          C206   1.559       .  S
C1          C216   1.722       .  S
C1          C226   2.265       .  S
C1          C255   2.209       .  S
C2          C186   1.596   1_556  S
C2          C420   1.617       .  S
C2          C225   2.265       .  S
C2         C1152   2.247       .  S
O3           C13   1.251       .  A
O3          V459   1.929   1_545  S
O4           C14   1.256       .  A
O4           V11   1.932       .  S
O5           C15   1.267       .  A
O5          V235   1.924   1_554  S
O6           C16   1.260       .  A
O6           V11   1.923       .  S
O7           C16   1.261       .  A
O7           V12   1.911       .  S
O8           C15   1.250       .  A
O8          V236   1.913   1_554  S
O9           C14   1.274       .  A
O9           V12   1.935       .  S
O10          C13   1.262       .  A
O10         V460   1.895   1_545  S
V11         O451   1.929       .  S
V11         O229   1.924       .  S
V11          V12   1.993       .  T
V12         O232   1.913       .  S
V12         O458   1.895       .  S
C13         C219   1.500       .  S
C14         C159   1.504       .  S
C15         C166   1.500       .  S
C16         C176   1.503       .  S
O17         C923   1.268       .  A
O17          V25   1.919       .  S
O18          C28   1.251       .  A
O18         V473   1.919   1_545  S
O19          C29   1.272       .  A
O19          V25   1.957       .  S
O20         C926   1.259       .  A
O20         V249   1.916   1_554  S
O21          C30   1.264       .  A
O21         V250   1.925   1_554  S
O22         C925   1.258   1_455  A
O22          V26   1.943       .  S
O23         C924   1.267       .  A
O23         V474   1.955   1_545  S
O24          C27   1.253       .  A
O24          V26   1.908       .  S
V25         O466   1.919       .  S
V25         O244   1.916       .  S
V25         V922   1.985       .  T
V26         O245   1.925       .  S
V26         O471   1.955       .  S
V26         V921   1.985   1_455  T
C27         O913   1.268   1_455  A
C27         C126   1.476       .  S
C28         O919   1.267       .  A
C28         C199   1.510       .  S
C29         O918   1.258       .  A
C29         C136   1.525       .  S
C30         O916   1.259   1_455  A
C30         C146   1.487       .  S
C31         C119   1.723   1_556  S
C31         C380   1.646       .  S
C31         C225   2.209       .  S
C31         C256   2.227       .  S
C32         C106   1.634       .  S
C32         C129   1.709       .  S
C32        C1122   2.248   1_455  S
C32         C255   2.227       .  S
C33          C99   1.652       .  S
C33         C149   1.601       .  S
C33          C34   2.240       .  S
C33         C960   2.239   1_455  S
C34          C86   1.695       .  S
C34         C179   1.648       .  S
C34          C63   2.185       .  S
O35          C45   1.261       .  A
O35          V43   1.919       .  S
O36          C46   1.256       .  A
O36          V43   1.933       .  S
O37          C47   1.263       .  A
O37          V43   1.953       .  S
O38          C48   1.254       .  A
O38          V43   1.928       .  S
O39          C48   1.248       .  A
O39          V44   1.870       .  S
O40          C47   1.266       .  A
O40          V44   1.931       .  S
O41          C46   1.267       .  A
O41          V44   1.901       .  S
O42          C45   1.245       .  A
O42          V44   1.891       .  S
V43          V44   1.998       .  T
C45          C89   1.460       .  S
C46          C79   1.515       .  S
C47         C116   1.531       .  S
C48         C209   1.467       .  S
O49          C59   1.271       .  A
O49          V57   1.927       .  S
O50         C956   1.260       .  A
O50          V57   1.932       .  S
O51         C957   1.263       .  A
O51          V57   1.951       .  S
O52          C62   1.251       .  A
O52          V57   1.911       .  S
O53         C958   1.270   1_455  A
O53          V58   1.915       .  S
O54          C61   1.269       .  A
O54          V58   1.949       .  S
O55          C60   1.254       .  A
O55          V58   1.911       .  S
O56         C955   1.252   1_455  A
O56          V58   1.898       .  S
V57         V954   1.993       .  T
V58         V953   1.993   1_455  T
C59         O952   1.252       .  A
C59         C189   1.486       .  S
C60         O946   1.260   1_455  A
C60         C109   1.496       .  S
C61         O947   1.263   1_455  A
C61          C96   1.530       .  S
C62         O949   1.270       .  A
C62          C66   1.492       .  S
C63         C169   1.635       .  S
C63         C524   1.651       .  S
C63          C64   2.247       .  S
C64         C139   1.625       .  S
C64         C517   1.665       .  S
C64         C929   2.239       .  S
C65          C66   1.377       .  A
C65          C70   1.416       .  A
C65          H72   1.083       .  S
C66         C963   1.376       .  A
C67          C68   1.427       .  A
C67         C962   1.376   1_455  A
C67         Br74   1.919       .  S
C68         C965   1.386   1_455  A
C68          H73   1.046       .  S
C69         C512   1.665   1_545  S
C69          C70   1.476       .  A
C69         C964   1.386       .  A
C70         Br71   1.934       .  S
C75          C76   1.408       .  A
C75          C80   1.428       .  A
C75          H82   1.059       .  S
C76         C511   1.651   1_545  S
C76          C77   1.452       .  A
C77          C78   1.420       .  A
C77         Br84   1.925       .  S
C78          C79   1.397       .  A
C78          H83   1.083       .  S
C79          C80   1.391       .  A
C80         Br81   1.910       .  S
C85          C86   1.454       .  A
C85          C90   1.407       .  A
C85          H92   1.064       .  S
C86          C87   1.453       .  A
C87          C88   1.403       .  A
C87         Br94   1.873       .  S
C88          C89   1.363       .  A
C88          H93   1.092       .  S
C89          C90   1.382       .  A
C90         Br91   1.896       .  S
C95          C96   1.391   1_655  A
C95         C100   1.421   1_655  A
C95         H998   1.089       .  S
C96          C97   1.418       .  A
C97          C98   1.435       .  A
C97        Br104   1.898       .  S
C98          C99   1.412       .  A
C98         H103   1.078       .  S
C99         C100   1.459       .  A
C100       Br997   1.904       .  S
Br101       C996   1.904       .  S
H102        C991   1.089       .  S
C105        C110   1.400       .  A
C105       C1002   1.405       .  A
C105        H112   1.005       .  S
C106        C107   1.428       .  A
C106       C1001   1.405   1_455  A
C107        C108   1.436       .  A
C107       Br114   1.857       .  S
C108        C109   1.402       .  A
C108        H113   1.067       .  S
C109       C1006   1.362   1_455  A
C110       C1005   1.362       .  A
C110       Br111   1.914       .  S
C115        C116   1.381       .  A
C115        C120   1.422       .  A
C115        H122   1.091       .  S
C116        C117   1.405       .  A
C117        C118   1.431       .  A
C117       Br124   1.911       .  S
C118        C119   1.437       .  A
C118        H123   1.065       .  S
C119        C120   1.487       .  A
C120       Br121   1.941       .  S
C125        C126   1.361       .  A
C125        C130   1.404       .  A
C125        H132   1.103       .  S
C126        C351   1.387       .  A
C127        C128   1.441       .  A
C127        C350   1.387   1_554  A
C127       Br134   1.885   1_455  S
C128        C353   1.400   1_554  A
C128        H133   1.055       .  S
C129        C130   1.495       .  A
C129        C352   1.400       .  A
C130       Br131   1.990   1_455  S
C135        C136   1.410       .  A
C135        C140   1.433       .  A
C135        H142   1.081       .  S
C136       C1481   1.386       .  A
C137       C1480   1.386   1_545  A
C137       C1034   1.406       .  A
C137       Br144   1.909   1_655  S
C138       C1033   1.406       .  A
C138        C587   1.414   1_545  A
C138       H1039   1.052       .  S
C139        C140   1.435       .  A
C139        C586   1.414       .  A
C140       Br141   1.923       .  S
H143       C1034   1.052       .  S
C145       C1042   1.372       .  A
C145       C1046   1.415       .  A
C145        H600   1.076       .  S
C146        C147   1.388       .  A
C146       C1041   1.372   1_455  A
C147        C148   1.411       .  A
C147       Br154   1.873       .  S
C148        C149   1.409       .  A
C148        H153   1.035       .  S
C149        C150   1.388       .  A
C150       C1041   1.415   1_455  A
C150      Br1495   1.820       .  S
Br151      C1494   1.821   1_545  S
H152        C593   1.076   1_545  S
C155        C160   1.399       .  A
C155        C380   1.398   1_554  A
C155        H162   1.047       .  S
C156        C255   1.644       .  S
C156        C157   1.478       .  A
C156        C379   1.400       .  A
C157        C158   1.440       .  A
C157       Br164   1.909       .  S
C158        C159   1.396       .  A
C158        H163   1.084       .  S
C159        C384   1.377       .  A
C160        C383   1.376   1_554  A
C160       Br161   1.865       .  S
C165        C166   1.379       .  A
C165        C170   1.419       .  A
C165        H172   1.085       .  S
C166        C167   1.383       .  A
C167        C168   1.403       .  A
C167       Br174   1.860       .  S
C168        C169   1.400       .  A
C168        H173   1.075       .  S
C169        C170   1.485       .  A
C170       Br619   1.956       .  S
Br171       C618   1.956       .  S
C175        C176   1.376       .  A
C175        C180   1.425       .  A
C175        H182   1.062       .  S
C176        C177   1.376       .  A
C177        C178   1.419       .  A
C177       Br184   1.910       .  S
C178        C179   1.405       .  A
C178        H183   1.014       .  S
C179        C180   1.427       .  A
C180       Br181   1.884       .  S
C185        C186   1.414       .  A
C185       C1086   1.402       .  A
C185       H1088   1.081       .  S
C186        C187   1.419       .  A
C187        C188   1.405       .  A
C187       Br194   1.841       .  S
C188        C189   1.378       .  A
C188        H193   1.091       .  S
C189       C1086   1.402       .  A
C190       C1081   1.402       .  A
C190       C1085   1.402   1_455  A
C190       Br191   1.904       .  S
H192       C1081   1.081       .  S
C195        C200   1.414       .  A
C195        C420   1.443   1_554  A
C195        H202   1.080       .  S
C196        C226   1.616       .  S
C196        C197   1.420       .  A
C196        C419   1.443       .  A
C197        C198   1.413       .  A
C197      Br1100   1.916       .  S
C198        C199   1.381       .  A
C198       H1099   1.052       .  S
C199        C424   1.404       .  A
C200        C423   1.404   1_554  A
C200       Br201   1.898       .  S
H203       C1094   1.052       .  S
Br204      C1093   1.916       .  S
C205        C206   1.383       .  A
C205        C210   1.369       .  A
C205        H212   0.984       .  S
C206        C207   1.382       .  A
C207        C208   1.433       .  A
C207       Br214   1.889       .  S
C208        C209   1.407       .  A
C208        H213   1.062       .  S
C209        C210   1.370       .  A
C210       Br211   1.931       .  S
C215        C216   1.445       .  A
C215        C220   1.430       .  A
C215        H222   1.071       .  S
C216        C217   1.470       .  A
C217        C218   1.390       .  A
C217       Br224   1.995       .  S
C218        C219   1.367       .  A
C218        H223   1.087       .  S
C219        C220   1.402       .  A
C220       Br221   1.895       .  S
C225        C430   1.559       .  S
C225        C440   1.723       .  S
C226        C410   1.596       .  S
C226        C928   2.248       .  S
O227        C237   1.251   1_554  A
O227        V683   1.929   1_544  S
O228        C238   1.256       .  A
O228        V235   1.933       .  S
O229        C239   1.267       .  A
O230        C240   1.260       .  A
O230        V235   1.924       .  S
O231        C240   1.261       .  A
O231        V236   1.910       .  S
O232        C239   1.250       .  A
O233        C238   1.274       .  A
O233        V236   1.935       .  S
O234        C237   1.262       .  A
O234        V684   1.895   1_545  S
V235        O675   1.929   1_556  S
V235        V236   1.993       .  T
V236        O682   1.894       .  S
C237        C443   1.500       .  S
C238        C383   1.505       .  S
C239        C390   1.500       .  S
C240        C400   1.502       .  S
O241       C1147   1.268       .  A
O241        V249   1.919       .  S
O242        C252   1.251       .  A
O242        V697   1.919   1_545  S
O243        C253   1.272       .  A
O243        V249   1.957       .  S
O244       C1150   1.259       .  A
O245        C254   1.264       .  A
O246       C1149   1.258   1_455  A
O246        V250   1.944       .  S
O247       C1148   1.267       .  A
O247        V698   1.956   1_545  S
O248        C251   1.253       .  A
O248        V250   1.908       .  S
V249        O690   1.919       .  S
V249       V1146   1.985       .  T
V250        O695   1.956       .  S
V250       V1145   1.985   1_455  T
C251       O1137   1.268   1_455  A
C251        C350   1.476       .  S
C252       O1143   1.267       .  A
C252        C423   1.510       .  S
C253       O1142   1.258       .  A
C253        C360   1.525       .  S
C254       O1140   1.259   1_455  A
C254        C370   1.487       .  S
C255        C343   1.722       .  S
C256        C330   1.633       .  S
C256        C353   1.708       .  S
C256        C898   2.247   1_455  S
C257        C323   1.652       .  S
C257        C373   1.602       .  S
C257        C258   2.240       .  S
C257       C1184   2.239   1_455  S
C258        C310   1.695       .  S
C258        C403   1.649       .  S
C258        C287   2.185       .  S
O259        C269   1.261       .  A
O259        V267   1.919       .  S
O260        C270   1.256       .  A
O260        V267   1.933       .  S
O261        C271   1.263       .  A
O261        V267   1.953       .  S
O262        C272   1.254       .  A
O262        V267   1.928       .  S
O263        C272   1.248       .  A
O263        V268   1.870       .  S
O264        C271   1.266       .  A
O264        V268   1.932       .  S
O265        C270   1.267       .  A
O265        V268   1.901       .  S
O266        C269   1.245       .  A
O266        V268   1.891       .  S
V267        V268   1.998       .  T
C269        C313   1.460       .  S
C270        C303   1.514       .  S
C271        C340   1.532       .  S
C272        C433   1.468       .  S
O273        C283   1.271       .  A
O273        V281   1.927       .  S
O274       C1180   1.260       .  A
O274        V281   1.932       .  S
O275       C1181   1.264       .  A
O275        V281   1.951       .  S
O276        C286   1.250       .  A
O276        V281   1.911       .  S
O277       C1182   1.270   1_455  A
O277        V282   1.915       .  S
O278        C285   1.269       .  A
O278        V282   1.949       .  S
O279        C284   1.254       .  A
O279        V282   1.911       .  S
O280       C1179   1.252   1_455  A
O280        V282   1.899       .  S
V281       V1178   1.993       .  T
V282       V1177   1.993   1_455  T
C283       O1176   1.252       .  A
C283        C413   1.487       .  S
C284       O1170   1.260   1_455  A
C284        C333   1.496       .  S
C285       O1171   1.264   1_455  A
C285        C320   1.530       .  S
C286       O1173   1.270       .  A
C286        C290   1.492       .  S
C287        C748   1.650       .  S
C287        C393   1.636       .  S
C287        C288   2.247       .  S
C288        C741   1.665       .  S
C288        C363   1.626       .  S
C288       C1153   2.239       .  S
C289        C290   1.377       .  A
C289        C294   1.416       .  A
C289        H296   1.083       .  S
C290       C1187   1.375       .  A
C291       C1186   1.375   1_455  A
C291        C292   1.426       .  A
C291       Br298   1.919       .  S
C292       C1189   1.386   1_455  A
C292        H297   1.046       .  S
C293        C736   1.665   1_545  S
C293       C1188   1.386       .  A
C293        C294   1.476       .  A
C294       Br295   1.933       .  S
C299        C300   1.407       .  A
C299        C304   1.428       .  A
C299        H306   1.059       .  S
C300        C735   1.651   1_545  S
C300        C301   1.452       .  A
C301        C302   1.420       .  A
C301       Br308   1.926       .  S
C302        C303   1.397       .  A
C302        H307   1.083       .  S
C303        C304   1.391       .  A
C304       Br305   1.911       .  S
C309        C310   1.454       .  A
C309        C314   1.407       .  A
C309        H316   1.064       .  S
C310        C311   1.453       .  A
C311        C312   1.403       .  A
C311       Br318   1.873       .  S
C312        C313   1.363       .  A
C312        H317   1.092       .  S
C313        C314   1.382       .  A
C314       Br315   1.896       .  S
C319        C320   1.391   1_655  A
C319        C324   1.420   1_655  A
C319       H1222   1.089       .  S
C320        C321   1.418       .  A
C321        C322   1.435       .  A
C321       Br328   1.898       .  S
C322        C323   1.412       .  A
C322        H327   1.078       .  S
C323        C324   1.459       .  A
C324      Br1221   1.905       .  S
Br325      C1220   1.905       .  S
H326       C1215   1.089       .  S
C329       C1226   1.405       .  A
C329        C334   1.400       .  A
C329        H336   1.005       .  S
C330       C1225   1.405   1_455  A
C330        C331   1.427       .  A
C331        C332   1.436       .  A
C331       Br338   1.854       .  S
C332        C333   1.403       .  A
C332        H337   1.067       .  S
C333       C1230   1.362   1_455  A
C334       C1229   1.362       .  A
C334       Br335   1.914       .  S
C339        C340   1.381       .  A
C339        C344   1.422       .  A
C339        H346   1.090       .  S
C340        C341   1.405       .  A
C341        C342   1.431       .  A
C341       Br348   1.911       .  S
C342        C343   1.437       .  A
C342        H347   1.065       .  S
C343        C344   1.487       .  A
C344       Br345   1.939       .  S
C349        C350   1.361       .  A
C349        C354   1.403       .  A
C349        H356   1.103       .  S
C351        C352   1.441       .  A
C351       Br358   1.885   1_455  S
C352        H357   1.055       .  S
C353        C354   1.495       .  A
C354       Br355   1.990   1_455  S
C359        C360   1.410       .  A
C359        C364   1.433       .  A
C359        H366   1.081       .  S
C360       C1705   1.386       .  A
C361       C1704   1.386   1_545  A
C361       C1258   1.405       .  A
C361       Br368   1.909   1_655  S
C362       C1257   1.405       .  A
C362        C811   1.414   1_545  A
C362       H1263   1.052       .  S
C363        C810   1.414       .  A
C363        C364   1.435       .  A
C364       Br365   1.923       .  S
H367       C1258   1.052       .  S
C369       C1266   1.372       .  A
C369       C1270   1.415       .  A
C369        H824   1.077       .  S
C370       C1265   1.372   1_455  A
C370        C371   1.388       .  A
C371        C372   1.411       .  A
C371       Br378   1.874       .  S
C372        C373   1.409       .  A
C372        H377   1.035       .  S
C373        C374   1.388       .  A
C374       C1265   1.415   1_455  A
C374      Br1719   1.819       .  S
Br375      C1718   1.819   1_545  S
H376        C817   1.077   1_545  S
C379        C384   1.399       .  A
C379        H386   1.049       .  S
C380        C381   1.479       .  A
C381        C382   1.441       .  A
C381       Br388   1.908       .  S
C382        C383   1.396       .  A
C382        H387   1.084       .  S
C384       Br385   1.864       .  S
C389        C390   1.379       .  A
C389        C394   1.420       .  A
C389        H396   1.085       .  S
C390        C391   1.383       .  A
C391        C392   1.403       .  A
C391       Br398   1.860       .  S
C392        C393   1.399       .  A
C392        H397   1.074       .  S
C393        C394   1.486       .  A
C394       Br843   1.957       .  S
Br395       C842   1.956       .  S
C399        C400   1.376       .  A
C399        C404   1.426       .  A
C399        H406   1.062       .  S
C400        C401   1.376       .  A
C401        C402   1.418       .  A
C401       Br408   1.910       .  S
C402        C403   1.404       .  A
C402        H407   1.014       .  S
C403        C404   1.429       .  A
C404       Br405   1.886       .  S
C409        C410   1.414       .  A
C409       C1310   1.402       .  A
C409       H1312   1.081       .  S
C410        C411   1.419       .  A
C411        C412   1.406       .  A
C411       Br418   1.847       .  S
C412        C413   1.379       .  A
C412        H417   1.092       .  S
C413       C1310   1.402       .  A
C414       C1305   1.402       .  A
C414       C1309   1.402   1_455  A
C414       Br415   1.904       .  S
H416       C1305   1.081       .  S
C419        C424   1.414       .  A
C419        H426   1.080       .  S
C420        C421   1.420       .  A
C421        C422   1.413       .  A
C421      Br1324   1.916       .  S
C422        C423   1.381       .  A
C422       H1323   1.051       .  S
C424       Br425   1.897       .  S
H427       C1318   1.051       .  S
Br428      C1317   1.916       .  S
C429        C430   1.383       .  A
C429        C434   1.369       .  A
C429        H436   0.984       .  S
C430        C431   1.382       .  A
C431        C432   1.433       .  A
C431       Br438   1.889       .  S
C432        C433   1.407       .  A
C432        H437   1.062       .  S
C433        C434   1.371       .  A
C434       Br435   1.931       .  S
C439        C440   1.445   1_554  A
C439        C444   1.430       .  A
C439        H446   1.071       .  S
C440        C441   1.470       .  A
C441        C442   1.390       .  A
C441       Br448   1.995       .  S
C442        C443   1.367       .  A
C442        H447   1.087       .  S
C443        C444   1.402   1_556  A
C444       Br445   1.895       .  S
C449        C654   1.559       .  S
C449        C664   1.723       .  S
C449        C674   2.264       .  S
C449        C703   2.209       .  S
C450        C634   1.596   1_556  S
C450        C868   1.617       .  S
C450        C673   2.265       .  S
C450       C1600   2.248       .  S
O451        C461   1.251       .  A
O452        C462   1.256       .  A
O452        V459   1.932       .  S
O453        C463   1.267       .  A
O453        V683   1.924   1_554  S
O454        C464   1.260       .  A
O454        V459   1.924       .  S
O455        C464   1.261       .  A
O455        V460   1.911       .  S
O456        C463   1.250       .  A
O456        V684   1.913   1_554  S
O457        C462   1.274       .  A
O457        V460   1.935       .  S
O458        C461   1.262       .  A
V459        O677   1.924       .  S
V459        V460   1.993       .  T
V460        O680   1.913       .  S
C461        C667   1.500       .  S
C462        C607   1.504       .  S
C463        C614   1.500       .  S
C464        C624   1.502       .  S
O465       C1371   1.268       .  A
O465        V473   1.919       .  S
O466        C476   1.251       .  A
O467        C477   1.272       .  A
O467        V473   1.958       .  S
O468       C1374   1.259       .  A
O468        V697   1.916   1_554  S
O469        C478   1.264       .  A
O469        V698   1.925   1_554  S
O470       C1373   1.258   1_455  A
O470        V474   1.943       .  S
O471       C1372   1.267       .  A
O472        C475   1.253       .  A
O472        V474   1.908       .  S
V473        O692   1.916       .  S
V473       V1370   1.985       .  T
V474        O693   1.925       .  S
V474       V1369   1.985   1_455  T
C475       O1361   1.268   1_455  A
C475        C574   1.476       .  S
C476       O1367   1.267       .  A
C476        C647   1.510       .  S
C477       O1366   1.258       .  A
C477        C584   1.525       .  S
C478       O1364   1.259   1_455  A
C478        C594   1.487       .  S
C479        C567   1.722   1_556  S
C479        C828   1.645       .  S
C479        C673   2.209       .  S
C479        C704   2.227       .  S
C480        C554   1.634       .  S
C480        C577   1.709       .  S
C480       C1570   2.248   1_455  S
C480        C703   2.227       .  S
C481        C547   1.652       .  S
C481        C597   1.602       .  S
C481        C482   2.240       .  S
C481       C1408   2.239   1_455  S
C482        C534   1.694       .  S
C482        C627   1.648       .  S
C482        C511   2.185       .  S
O483        C493   1.261       .  A
O483        V491   1.919       .  S
O484        C494   1.256       .  A
O484        V491   1.932       .  S
O485        C495   1.263       .  A
O485        V491   1.953       .  S
O486        C496   1.254       .  A
O486        V491   1.928       .  S
O487        C496   1.248       .  A
O487        V492   1.870       .  S
O488        C495   1.266       .  A
O488        V492   1.932       .  S
O489        C494   1.267       .  A
O489        V492   1.901       .  S
O490        C493   1.245       .  A
O490        V492   1.891       .  S
V491        V492   1.998       .  T
C493        C537   1.460       .  S
C494        C527   1.514       .  S
C495        C564   1.532       .  S
C496        C657   1.467       .  S
O497        C507   1.271       .  A
O497        V505   1.927       .  S
O498       C1404   1.260       .  A
O498        V505   1.932       .  S
O499       C1405   1.263       .  A
O499        V505   1.950       .  S
O500        C510   1.250       .  A
O500        V505   1.911       .  S
O501       C1406   1.269   1_455  A
O501        V506   1.914       .  S
O502        C509   1.269       .  A
O502        V506   1.949       .  S
O503        C508   1.254       .  A
O503        V506   1.911       .  S
O504       C1403   1.252   1_455  A
O504        V506   1.899       .  S
V505       V1402   1.993       .  T
V506       V1401   1.993   1_455  T
C507       O1400   1.252       .  A
C507        C637   1.486       .  S
C508       O1394   1.260   1_455  A
C508        C557   1.496       .  S
C509       O1395   1.263   1_455  A
C509        C544   1.530       .  S
C510       O1397   1.270       .  A
C510        C514   1.492       .  S
C511        C617   1.635       .  S
C511        C512   2.248       .  S
C512        C587   1.625       .  S
C512       C1377   2.239       .  S
C513        C514   1.377       .  A
C513        C518   1.416       .  A
C513        H520   1.083       .  S
C514       C1411   1.375       .  A
C515       C1410   1.375   1_455  A
C515        C516   1.426       .  A
C515       Br522   1.919       .  S
C516       C1413   1.386   1_455  A
C516        H521   1.046       .  S
C517       C1412   1.386       .  A
C517        C518   1.476       .  A
C518       Br519   1.934       .  S
C523        C524   1.407       .  A
C523        C528   1.428       .  A
C523        H530   1.059       .  S
C524        C525   1.452       .  A
C525        C526   1.420       .  A
C525       Br532   1.925       .  S
C526        C527   1.397       .  A
C526        H531   1.083       .  S
C527        C528   1.391       .  A
C528       Br529   1.911       .  S
C533        C534   1.454       .  A
C533        C538   1.407       .  A
C533        H540   1.064       .  S
C534        C535   1.453       .  A
C535        C536   1.403       .  A
C535       Br542   1.873       .  S
C536        C537   1.363       .  A
C536        H541   1.092       .  S
C537        C538   1.381       .  A
C538       Br539   1.896       .  S
C543        C544   1.391   1_655  A
C543        C548   1.420   1_655  A
C543       H1446   1.089       .  S
C544        C545   1.417       .  A
C545        C546   1.435       .  A
C545       Br552   1.898       .  S
C546        C547   1.412       .  A
C546        H551   1.078       .  S
C547        C548   1.459       .  A
C548      Br1445   1.904       .  S
Br549      C1444   1.904       .  S
H550       C1439   1.089       .  S
C553       C1450   1.405       .  A
C553        C558   1.400       .  A
C553        H560   1.005       .  S
C554       C1449   1.405   1_455  A
C554        C555   1.428       .  A
C555        C556   1.436       .  A
C555       Br562   1.855       .  S
C556        C557   1.402       .  A
C556        H561   1.067       .  S
C557       C1454   1.362   1_455  A
C558       C1453   1.362       .  A
C558       Br559   1.913       .  S
C563        C564   1.381       .  A
C563        C568   1.422       .  A
C563        H570   1.090       .  S
C564        C565   1.405       .  A
C565        C566   1.431       .  A
C565       Br572   1.912       .  S
C566        C567   1.437       .  A
C566        H571   1.065       .  S
C567        C568   1.487       .  A
C568       Br569   1.939       .  S
C573        C574   1.361       .  A
C573        C578   1.404       .  A
C573        H580   1.103       .  S
C574        C799   1.387       .  A
C575        C798   1.387   1_554  A
C575        C576   1.441       .  A
C575       Br582   1.885   1_455  S
C576        C801   1.400   1_554  A
C576        H581   1.055       .  S
C577        C800   1.400       .  A
C577        C578   1.495       .  A
C578       Br579   1.990   1_455  S
C583        C584   1.410       .  A
C583        C588   1.433       .  A
C583        H590   1.081       .  S
C584       C1033   1.386   1_565  A
C585       C1032   1.386       .  A
C585       C1482   1.405       .  A
C585       Br592   1.908   1_655  S
C586       C1481   1.405       .  A
C586       H1487   1.053       .  S
C587        C588   1.435       .  A
C588       Br589   1.923       .  S
H591       C1482   1.053       .  S
C593       C1490   1.372       .  A
C593       C1494   1.415       .  A
C594       C1489   1.372   1_455  A
C594        C595   1.389       .  A
C595        C596   1.411       .  A
C595       Br602   1.873       .  S
C596        C597   1.409       .  A
C596        H601   1.035       .  S
C597        C598   1.388       .  A
C598       C1489   1.415   1_455  A
C598      Br1047   1.821   1_565  S
Br599      C1046   1.820       .  S
C603        C828   1.399   1_554  A
C603        C608   1.399       .  A
C603        H610   1.048       .  S
C604        C703   1.644       .  S
C604        C827   1.399       .  A
C604        C605   1.478       .  A
C605        C606   1.441       .  A
C605       Br612   1.908       .  S
C606        C607   1.396       .  A
C606        H611   1.084       .  S
C607        C832   1.377       .  A
C608        C831   1.377   1_554  A
C608       Br609   1.863       .  S
C613        C614   1.379       .  A
C613        C618   1.419   1_565  A
C613        H620   1.085   1_565  S
C614        C615   1.383       .  A
C615        C616   1.403       .  A
C615       Br622   1.860       .  S
C616        C617   1.399       .  A
C616        H621   1.075       .  S
C617        C618   1.485   1_565  A
C623        C624   1.376       .  A
C623        C628   1.425       .  A
C623        H630   1.062   1_565  S
C624        C625   1.376       .  A
C625        C626   1.419       .  A
C625       Br632   1.910       .  S
C626        C627   1.405       .  A
C626        H631   1.014       .  S
C627        C628   1.428       .  A
C628       Br629   1.885   1_565  S
C633        C634   1.414       .  A
C633       C1534   1.402       .  A
C633       H1536   1.081       .  S
C634        C635   1.419       .  A
C635        C636   1.405       .  A
C635       Br642   1.845       .  S
C636        C637   1.379       .  A
C636        H641   1.092       .  S
C637       C1534   1.402       .  A
C638       C1529   1.402       .  A
C638       C1533   1.402   1_455  A
C638       Br639   1.904       .  S
H640       C1529   1.081       .  S
C643        C868   1.443   1_554  A
C643        C648   1.415       .  A
C643        H650   1.080       .  S
C644        C674   1.617       .  S
C644        C867   1.443       .  A
C644        C645   1.420       .  A
C645        C646   1.413       .  A
C645      Br1548   1.917       .  S
C646        C647   1.381       .  A
C646       H1547   1.051       .  S
C647        C872   1.404       .  A
C648        C871   1.404   1_554  A
C648       Br649   1.898       .  S
H651       C1542   1.051       .  S
Br652      C1541   1.916       .  S
C653        C654   1.383       .  A
C653        C658   1.369       .  A
C653        H660   0.983       .  S
C654        C655   1.382       .  A
C655        C656   1.433       .  A
C655       Br662   1.889       .  S
C656        C657   1.407       .  A
C656        H661   1.062       .  S
C657        C658   1.370       .  A
C658       Br659   1.931       .  S
C663        C664   1.445       .  A
C663        C668   1.430       .  A
C663        H670   1.071       .  S
C664        C665   1.470       .  A
C665        C666   1.390       .  A
C665       Br672   1.995       .  S
C666        C667   1.367       .  A
C666        H671   1.087       .  S
C667        C668   1.402       .  A
C668       Br669   1.895       .  S
C673        C878   1.558       .  S
C673        C888   1.722       .  S
C674        C858   1.596       .  S
C674       C1376   2.248       .  S
O675        C685   1.251   1_554  A
O676        C686   1.256       .  A
O676        V683   1.932       .  S
O677        C687   1.267       .  A
O678        C688   1.260       .  A
O678        V683   1.923       .  S
O679        C688   1.261       .  A
O679        V684   1.911       .  S
O680        C687   1.250       .  A
O681        C686   1.274       .  A
O681        V684   1.935       .  S
O682        C685   1.262       .  A
V683        V684   1.993       .  T
C685        C891   1.500       .  S
C686        C831   1.504       .  S
C687        C838   1.500       .  S
C688        C848   1.502       .  S
O689       C1595   1.268       .  A
O689        V697   1.919       .  S
O690        C700   1.251       .  A
O691        C701   1.272       .  A
O691        V697   1.957       .  S
O692       C1598   1.259       .  A
O693        C702   1.264       .  A
O694       C1597   1.258   1_455  A
O694        V698   1.944       .  S
O695       C1596   1.267       .  A
O696        C699   1.253       .  A
O696        V698   1.908       .  S
V697       V1594   1.985       .  T
V698       V1593   1.985   1_455  T
C699       O1585   1.268   1_455  A
C699        C798   1.476       .  S
C700       O1591   1.267       .  A
C700        C871   1.511       .  S
C701       O1590   1.258       .  A
C701        C808   1.524       .  S
C702       O1588   1.259   1_455  A
C702        C818   1.487       .  S
C703        C791   1.722       .  S
C704        C778   1.634       .  S
C704        C801   1.709       .  S
C704       C1346   2.248   1_455  S
C705        C771   1.652       .  S
C705        C821   1.601       .  S
C705        C706   2.240       .  S
C705       C1632   2.240   1_455  S
C706        C758   1.695       .  S
C706        C851   1.648       .  S
C706        C735   2.185       .  S
O707        C717   1.261       .  A
O707        V715   1.919       .  S
O708        C718   1.256       .  A
O708        V715   1.933       .  S
O709        C719   1.263       .  A
O709        V715   1.953       .  S
O710        C720   1.254       .  A
O710        V715   1.928       .  S
O711        C720   1.248       .  A
O711        V716   1.870       .  S
O712        C719   1.266       .  A
O712        V716   1.932       .  S
O713        C718   1.267       .  A
O713        V716   1.901       .  S
O714        C717   1.245       .  A
O714        V716   1.891       .  S
V715        V716   1.998       .  T
C717        C761   1.460       .  S
C718        C751   1.515       .  S
C719        C788   1.532       .  S
C720        C881   1.468       .  S
O721        C731   1.271       .  A
O721        V729   1.927       .  S
O722       C1628   1.260       .  A
O722        V729   1.932       .  S
O723       C1629   1.264       .  A
O723        V729   1.951       .  S
O724        C734   1.251       .  A
O724        V729   1.911       .  S
O725       C1630   1.269   1_455  A
O725        V730   1.915       .  S
O726        C733   1.269       .  A
O726        V730   1.949       .  S
O727        C732   1.254       .  A
O727        V730   1.911       .  S
O728       C1627   1.252   1_455  A
O728        V730   1.898       .  S
V729       V1626   1.993       .  T
V730       V1625   1.993   1_455  T
C731       O1624   1.252       .  A
C731        C861   1.486       .  S
C732       O1618   1.260   1_455  A
C732        C781   1.496       .  S
C733       O1619   1.264   1_455  A
C733        C768   1.530       .  S
C734       O1621   1.269       .  A
C734        C738   1.492       .  S
C735        C841   1.636       .  S
C735        C736   2.247       .  S
C736        C811   1.624       .  S
C736       C1601   2.240       .  S
C737        C738   1.377       .  A
C737        C742   1.416       .  A
C737        H744   1.083       .  S
C738       C1635   1.375       .  A
C739       C1634   1.375   1_455  A
C739        C740   1.427       .  A
C739       Br746   1.920       .  S
C740       C1637   1.386   1_455  A
C740        H745   1.046       .  S
C741       C1636   1.386       .  A
C741        C742   1.476       .  A
C742       Br743   1.934       .  S
C747        C748   1.407       .  A
C747        C752   1.428       .  A
C747        H754   1.059       .  S
C748        C749   1.452       .  A
C749        C750   1.420       .  A
C749       Br756   1.925       .  S
C750        C751   1.397       .  A
C750        H755   1.082       .  S
C751        C752   1.391       .  A
C752       Br753   1.910       .  S
C757        C758   1.454       .  A
C757        C762   1.407       .  A
C757        H764   1.064       .  S
C758        C759   1.453       .  A
C759        C760   1.403       .  A
C759       Br766   1.873       .  S
C760        C761   1.363       .  A
C760        H765   1.092       .  S
C761        C762   1.382       .  A
C762       Br763   1.895       .  S
C767        C768   1.391   1_655  A
C767        C772   1.420   1_655  A
C767       H1670   1.089       .  S
C768        C769   1.418       .  A
C769        C770   1.435       .  A
C769       Br776   1.898       .  S
C770        C771   1.412       .  A
C770        H775   1.078       .  S
C771        C772   1.459       .  A
C772      Br1669   1.904       .  S
Br773      C1668   1.904       .  S
H774       C1663   1.089       .  S
C777       C1674   1.405       .  A
C777        C782   1.400       .  A
C777        H784   1.005       .  S
C778       C1673   1.405   1_455  A
C778        C779   1.428       .  A
C779        C780   1.436       .  A
C779       Br786   1.856       .  S
C780        C781   1.402       .  A
C780        H785   1.067       .  S
C781       C1678   1.362   1_455  A
C782       C1677   1.362       .  A
C782       Br783   1.914       .  S
C787        C788   1.381       .  A
C787        C792   1.422       .  A
C787        H794   1.090       .  S
C788        C789   1.405       .  A
C789        C790   1.431       .  A
C789       Br796   1.911       .  S
C790        C791   1.437       .  A
C790        H795   1.065       .  S
C791        C792   1.487       .  A
C792       Br793   1.939       .  S
C797        C798   1.361       .  A
C797        C802   1.404       .  A
C797        H804   1.103       .  S
C799        C800   1.441       .  A
C799       Br806   1.885   1_455  S
C800        H805   1.055       .  S
C801        C802   1.495       .  A
C802       Br803   1.990   1_455  S
C807        C808   1.410       .  A
C807        C812   1.433       .  A
C807        H814   1.081       .  S
C808       C1257   1.386   1_565  A
C809       C1256   1.386       .  A
C809       C1706   1.406       .  A
C809       Br816   1.908   1_655  S
C810       C1705   1.406       .  A
C810       H1711   1.052       .  S
C811        C812   1.435       .  A
C812       Br813   1.923       .  S
H815       C1706   1.052       .  S
C817       C1714   1.372       .  A
C817       C1718   1.415       .  A
C818       C1713   1.372   1_455  A
C818        C819   1.388       .  A
C819        C820   1.411       .  A
C819       Br826   1.874       .  S
C820        C821   1.409       .  A
C820        H825   1.035       .  S
C821        C822   1.388       .  A
C822       C1713   1.415   1_455  A
C822      Br1271   1.819   1_565  S
Br823      C1270   1.819       .  S
C827        C832   1.399       .  A
C827        H834   1.048       .  S
C828        C829   1.479       .  A
C829        C830   1.441       .  A
C829       Br836   1.909       .  S
C830        C831   1.396       .  A
C830        H835   1.084       .  S
C832       Br833   1.864       .  S
C837        C838   1.379       .  A
C837        C842   1.420   1_565  A
C837        H844   1.085   1_565  S
C838        C839   1.383       .  A
C839        C840   1.403       .  A
C839       Br846   1.860       .  S
C840        C841   1.399       .  A
C840        H845   1.074       .  S
C841        C842   1.486   1_565  A
C847        C848   1.376       .  A
C847        C852   1.426       .  A
C847        H854   1.062   1_565  S
C848        C849   1.376       .  A
C849        C850   1.418       .  A
C849       Br856   1.910       .  S
C850        C851   1.404       .  A
C850        H855   1.014       .  S
C851        C852   1.428       .  A
C852       Br853   1.885   1_565  S
C857        C858   1.414       .  A
C857       C1758   1.402       .  A
C857       H1760   1.081       .  S
C858        C859   1.419       .  A
C859        C860   1.406       .  A
C859       Br866   1.847       .  S
C860        C861   1.379       .  A
C860        H865   1.092       .  S
C861       C1758   1.402       .  A
C862       C1753   1.402       .  A
C862       C1757   1.402   1_455  A
C862       Br863   1.904       .  S
H864       C1753   1.081       .  S
C867        C872   1.414       .  A
C867        H874   1.080       .  S
C868        C869   1.420       .  A
C869        C870   1.413       .  A
C869      Br1772   1.916       .  S
C870        C871   1.381       .  A
C870       H1771   1.051       .  S
C872       Br873   1.897       .  S
H875       C1766   1.051       .  S
Br876      C1765   1.916       .  S
C877        C878   1.383       .  A
C877        C882   1.368       .  A
C877        H884   0.985       .  S
C878        C879   1.382       .  A
C879        C880   1.433       .  A
C879       Br886   1.889       .  S
C880        C881   1.407       .  A
C880        H885   1.062       .  S
C881        C882   1.371       .  A
C882       Br883   1.930       .  S
C887        C888   1.445   1_554  A
C887        C892   1.430       .  A
C887        H894   1.071       .  S
C888        C889   1.470       .  A
C889        C890   1.390       .  A
C889       Br896   1.995       .  S
C890        C891   1.367       .  A
C890        H895   1.087       .  S
C891        C892   1.402   1_556  A
C892       Br893   1.895       .  S
C897       C1102   1.559       .  S
C897       C1112   1.722       .  S
C897       C1122   2.265       .  S
C897       C1151   2.209       .  S
C898       C1082   1.596   1_556  S
C898       C1316   1.617       .  S
C898       C1121   2.265       .  S
O899        C909   1.251       .  A
O899       V1355   1.929   1_545  S
O900        C910   1.256       .  A
O900        V907   1.932       .  S
O901        C911   1.267       .  A
O901       V1131   1.924   1_554  S
O902        C912   1.260       .  A
O902        V907   1.923       .  S
O903        C912   1.261       .  A
O903        V908   1.911       .  S
O904        C911   1.250       .  A
O904       V1132   1.913   1_554  S
O905        C910   1.274       .  A
O905        V908   1.935       .  S
O906        C909   1.262       .  A
O906       V1356   1.895   1_545  S
V907       O1347   1.929       .  S
V907       O1125   1.924       .  S
V907        V908   1.993       .  T
V908       O1128   1.913       .  S
V908       O1354   1.895       .  S
C909       C1115   1.500       .  S
C910       C1055   1.504       .  S
C911       C1062   1.500       .  S
C912       C1072   1.503       .  S
O913        V921   1.919       .  S
O914        C924   1.251   1_655  A
O914       V1369   1.919   1_545  S
O915        C925   1.272       .  A
O915        V921   1.957       .  S
O916       V1145   1.916   1_554  S
O917        C926   1.264       .  A
O917       V1146   1.925   1_554  S
O918        V922   1.943       .  S
O919       V1370   1.955   1_545  S
O920        C923   1.253       .  A
O920        V922   1.908       .  S
V921       O1362   1.919       .  S
V921       O1140   1.916       .  S
V922       O1141   1.925       .  S
V922       O1367   1.955       .  S
C923       C1022   1.476       .  S
C924       C1095   1.510   1_455  S
C925       C1032   1.524       .  S
C926       C1042   1.487       .  S
C927       C1015   1.723   1_556  S
C927       C1276   1.646       .  S
C927       C1121   2.209       .  S
C927       C1152   2.227       .  S
C928       C1002   1.634       .  S
C928       C1025   1.709       .  S
C928       C1151   2.227       .  S
C929        C995   1.652       .  S
C929       C1045   1.601       .  S
C929        C930   2.240       .  S
C930        C982   1.695       .  S
C930       C1075   1.648       .  S
C930        C959   2.185       .  S
O931        C941   1.261       .  A
O931        V939   1.919       .  S
O932        C942   1.256       .  A
O932        V939   1.933       .  S
O933        C943   1.263       .  A
O933        V939   1.953       .  S
O934        C944   1.254       .  A
O934        V939   1.928       .  S
O935        C944   1.248       .  A
O935        V940   1.870       .  S
O936        C943   1.266       .  A
O936        V940   1.931       .  S
O937        C942   1.267       .  A
O937        V940   1.901       .  S
O938        C941   1.245       .  A
O938        V940   1.891       .  S
V939        V940   1.998       .  T
C941        C985   1.460       .  S
C942        C975   1.515       .  S
C943       C1012   1.531       .  S
C944       C1105   1.467       .  S
O945        C955   1.271       .  A
O945        V953   1.927       .  S
O946        V953   1.932       .  S
O947        V953   1.951       .  S
O948        C958   1.251       .  A
O948        V953   1.911       .  S
O949        V954   1.915       .  S
O950        C957   1.269       .  A
O950        V954   1.949       .  S
O951        C956   1.254       .  A
O951        V954   1.911       .  S
O952        V954   1.898       .  S
C955       C1085   1.486       .  S
C956       C1005   1.496       .  S
C957        C992   1.530       .  S
C958        C962   1.492       .  S
C959       C1420   1.651       .  S
C959       C1065   1.635       .  S
C959        C960   2.247       .  S
C960       C1413   1.665       .  S
C960       C1035   1.624       .  S
C961        C962   1.377       .  A
C961        C966   1.416       .  A
C961        H968   1.083       .  S
C963        C964   1.427       .  A
C963       Br970   1.919       .  S
C964        H969   1.046       .  S
C965       C1408   1.665   1_545  S
C965        C966   1.476       .  A
C966       Br967   1.934       .  S
C971        C972   1.408       .  A
C971        C976   1.428       .  A
C971        H978   1.059       .  S
C972       C1407   1.651   1_545  S
C972        C973   1.452       .  A
C973        C974   1.420       .  A
C973       Br980   1.925       .  S
C974        C975   1.397       .  A
C974        H979   1.083       .  S
C975        C976   1.391       .  A
C976       Br977   1.910       .  S
C981        C982   1.454       .  A
C981        C986   1.407       .  A
C981        H988   1.064       .  S
C982        C983   1.453       .  A
C983        C984   1.403       .  A
C983       Br990   1.873       .  S
C984        C985   1.363       .  A
C984        H989   1.092       .  S
C985        C986   1.382       .  A
C986       Br987   1.895       .  S
C991        C992   1.391       .  A
C991        C996   1.421       .  A
C992        C993   1.418       .  A
C993        C994   1.435       .  A
C993      Br1000   1.898       .  S
C994        C995   1.412       .  A
C994        H999   1.078       .  S
C995        C996   1.459       .  A
C1001      C1006   1.400       .  A
C1001      H1008   1.005       .  S
C1002      C1003   1.428       .  A
C1003      C1004   1.436       .  A
C1003     Br1010   1.856       .  S
C1004      C1005   1.402       .  A
C1004      H1009   1.067       .  S
C1006     Br1007   1.914       .  S
C1011      C1012   1.381       .  A
C1011      C1016   1.422       .  A
C1011      H1018   1.091       .  S
C1012      C1013   1.405       .  A
C1013      C1014   1.431       .  A
C1013     Br1020   1.911       .  S
C1014      C1015   1.437       .  A
C1014      H1019   1.065       .  S
C1015      C1016   1.487       .  A
C1016     Br1017   1.941       .  S
C1021      C1022   1.361       .  A
C1021      C1026   1.404       .  A
C1021      H1028   1.103       .  S
C1022      C1247   1.387       .  A
C1023      C1246   1.387   1_554  A
C1023      C1024   1.440       .  A
C1023     Br1030   1.885       .  S
C1024      C1249   1.400   1_554  A
C1024      H1029   1.055       .  S
C1025      C1248   1.400       .  A
C1025      C1026   1.495       .  A
C1026     Br1027   1.990       .  S
C1031      C1032   1.410       .  A
C1031      C1036   1.433       .  A
C1031      H1038   1.081       .  S
C1033     Br1040   1.909       .  S
C1034      C1483   1.414   1_545  A
C1035      C1482   1.414       .  A
C1035      C1036   1.435       .  A
C1036     Br1037   1.923       .  S
C1041      H1496   1.076       .  S
C1042      C1043   1.388       .  A
C1043      C1044   1.411       .  A
C1043     Br1050   1.873       .  S
C1044      C1045   1.409       .  A
C1044      H1049   1.035       .  S
C1045      C1046   1.388       .  A
H1048      C1489   1.077   1_545  S
C1051      C1276   1.398   1_554  A
C1051      C1056   1.399       .  A
C1051      H1058   1.047       .  S
C1052      C1151   1.644       .  S
C1052      C1275   1.400       .  A
C1052      C1053   1.478       .  A
C1053      C1054   1.440       .  A
C1053     Br1060   1.909       .  S
C1054      C1055   1.396       .  A
C1054      H1059   1.084       .  S
C1055      C1280   1.377       .  A
C1056      C1279   1.376   1_554  A
C1056     Br1057   1.864       .  S
C1061      C1062   1.379       .  A
C1061      C1066   1.419       .  A
C1061      H1068   1.085       .  S
C1062      C1063   1.383       .  A
C1063      C1064   1.403       .  A
C1063     Br1070   1.860       .  S
C1064      C1065   1.400       .  A
C1064      H1069   1.075       .  S
C1065      C1066   1.485       .  A
C1066     Br1515   1.956       .  S
Br1067     C1514   1.956       .  S
C1071      C1072   1.376       .  A
C1071      C1076   1.425       .  A
C1071      H1078   1.062       .  S
C1072      C1073   1.376       .  A
C1073      C1074   1.419       .  A
C1073     Br1080   1.910       .  S
C1074      C1075   1.404       .  A
C1074      H1079   1.014       .  S
C1075      C1076   1.428       .  A
C1076     Br1077   1.884       .  S
C1081      C1082   1.414   1_455  A
C1082      C1083   1.419       .  A
C1083      C1084   1.405       .  A
C1083     Br1090   1.842       .  S
C1084      C1085   1.378       .  A
C1084      H1089   1.092       .  S
C1086     Br1087   1.904       .  S
C1091      C1316   1.443   1_554  A
C1091      C1096   1.414       .  A
C1091      H1098   1.080       .  S
C1092      C1122   1.616       .  S
C1092      C1315   1.443       .  A
C1092      C1093   1.420       .  A
C1093      C1094   1.413       .  A
C1094      C1095   1.381       .  A
C1095      C1320   1.404       .  A
C1096      C1319   1.404   1_554  A
C1096     Br1097   1.898       .  S
C1101      C1102   1.383       .  A
C1101      C1106   1.369       .  A
C1101      H1108   0.984       .  S
C1102      C1103   1.382       .  A
C1103      C1104   1.433       .  A
C1103     Br1110   1.889       .  S
C1104      C1105   1.407       .  A
C1104      H1109   1.062       .  S
C1105      C1106   1.370       .  A
C1106     Br1107   1.931       .  S
C1111      C1112   1.445       .  A
C1111      C1116   1.430       .  A
C1111      H1118   1.071       .  S
C1112      C1113   1.470       .  A
C1113      C1114   1.390       .  A
C1113     Br1120   1.995       .  S
C1114      C1115   1.367       .  A
C1114      H1119   1.087       .  S
C1115      C1116   1.402       .  A
C1116     Br1117   1.895       .  S
C1121      C1326   1.559       .  S
C1121      C1336   1.723       .  S
C1122      C1306   1.596       .  S
O1123      C1133   1.251   1_554  A
O1123      V1579   1.929   1_544  S
O1124      C1134   1.256       .  A
O1124      V1131   1.933       .  S
O1125      C1135   1.267       .  A
O1126      C1136   1.260       .  A
O1126      V1131   1.924       .  S
O1127      C1136   1.261       .  A
O1127      V1132   1.910       .  S
O1128      C1135   1.250       .  A
O1129      C1134   1.274       .  A
O1129      V1132   1.935       .  S
O1130      C1133   1.262       .  A
O1130      V1580   1.895   1_545  S
V1131      O1571   1.929   1_556  S
V1131      V1132   1.993       .  T
V1132      O1578   1.894       .  S
C1133      C1339   1.500       .  S
C1134      C1279   1.505       .  S
C1135      C1286   1.500       .  S
C1136      C1296   1.502       .  S
O1137      V1145   1.919       .  S
O1138      C1148   1.251   1_655  A
O1138      V1593   1.919   1_545  S
O1139      C1149   1.272       .  A
O1139      V1145   1.957       .  S
O1141      C1150   1.264       .  A
O1142      V1146   1.944       .  S
O1143      V1594   1.956   1_545  S
O1144      C1147   1.253       .  A
O1144      V1146   1.908       .  S
V1145      O1586   1.919       .  S
V1146      O1591   1.956       .  S
C1147      C1246   1.476       .  S
C1148      C1319   1.510   1_455  S
C1149      C1256   1.525       .  S
C1150      C1266   1.487       .  S
C1151      C1239   1.722       .  S
C1152      C1226   1.633       .  S
C1152      C1249   1.708       .  S
C1153      C1219   1.652       .  S
C1153      C1269   1.602       .  S
C1153      C1154   2.240       .  S
C1154      C1206   1.695       .  S
C1154      C1299   1.649       .  S
C1154      C1183   2.185       .  S
O1155      C1165   1.261       .  A
O1155      V1163   1.919       .  S
O1156      C1166   1.256       .  A
O1156      V1163   1.933       .  S
O1157      C1167   1.263       .  A
O1157      V1163   1.953       .  S
O1158      C1168   1.254       .  A
O1158      V1163   1.928       .  S
O1159      C1168   1.248       .  A
O1159      V1164   1.870       .  S
O1160      C1167   1.266       .  A
O1160      V1164   1.932       .  S
O1161      C1166   1.267       .  A
O1161      V1164   1.901       .  S
O1162      C1165   1.245       .  A
O1162      V1164   1.891       .  S
V1163      V1164   1.998       .  T
C1165      C1209   1.460       .  S
C1166      C1199   1.515       .  S
C1167      C1236   1.532       .  S
C1168      C1329   1.468       .  S
O1169      C1179   1.271       .  A
O1169      V1177   1.927       .  S
O1170      V1177   1.932       .  S
O1171      V1177   1.951       .  S
O1172      C1182   1.250       .  A
O1172      V1177   1.911       .  S
O1173      V1178   1.915       .  S
O1174      C1181   1.269       .  A
O1174      V1178   1.949       .  S
O1175      C1180   1.254       .  A
O1175      V1178   1.911       .  S
O1176      V1178   1.899       .  S
C1179      C1309   1.487       .  S
C1180      C1229   1.496       .  S
C1181      C1216   1.530       .  S
C1182      C1186   1.492       .  S
C1183      C1644   1.650       .  S
C1183      C1289   1.636       .  S
C1183      C1184   2.247       .  S
C1184      C1637   1.665       .  S
C1184      C1259   1.626       .  S
C1185      C1186   1.377       .  A
C1185      C1190   1.416       .  A
C1185      H1192   1.083       .  S
C1187      C1188   1.426       .  A
C1187     Br1194   1.919       .  S
C1188      H1193   1.046       .  S
C1189      C1632   1.665   1_545  S
C1189      C1190   1.476       .  A
C1190     Br1191   1.933       .  S
C1195      C1196   1.407       .  A
C1195      C1200   1.428       .  A
C1195      H1202   1.059       .  S
C1196      C1631   1.651   1_545  S
C1196      C1197   1.452       .  A
C1197      C1198   1.420       .  A
C1197     Br1204   1.925       .  S
C1198      C1199   1.397       .  A
C1198      H1203   1.083       .  S
C1199      C1200   1.391       .  A
C1200     Br1201   1.911       .  S
C1205      C1206   1.454       .  A
C1205      C1210   1.407       .  A
C1205      H1212   1.064       .  S
C1206      C1207   1.453       .  A
C1207      C1208   1.403       .  A
C1207     Br1214   1.873       .  S
C1208      C1209   1.363       .  A
C1208      H1213   1.092       .  S
C1209      C1210   1.382       .  A
C1210     Br1211   1.896       .  S
C1215      C1216   1.391       .  A
C1215      C1220   1.420       .  A
C1216      C1217   1.418       .  A
C1217      C1218   1.435       .  A
C1217     Br1224   1.898       .  S
C1218      C1219   1.412       .  A
C1218      H1223   1.078       .  S
C1219      C1220   1.459       .  A
C1225      C1230   1.400       .  A
C1225      H1232   1.005       .  S
C1226      C1227   1.427       .  A
C1227      C1228   1.436       .  A
C1227     Br1234   1.854       .  S
C1228      C1229   1.403       .  A
C1228      H1233   1.067       .  S
C1230     Br1231   1.914       .  S
C1235      C1236   1.381       .  A
C1235      C1240   1.422       .  A
C1235      H1242   1.090       .  S
C1236      C1237   1.405       .  A
C1237      C1238   1.431       .  A
C1237     Br1244   1.911       .  S
C1238      C1239   1.437       .  A
C1238      H1243   1.065       .  S
C1239      C1240   1.487       .  A
C1240     Br1241   1.939       .  S
C1245      C1246   1.361       .  A
C1245      C1250   1.403       .  A
C1245      H1252   1.103       .  S
C1247      C1248   1.441       .  A
C1247     Br1254   1.885       .  S
C1248      H1253   1.055       .  S
C1249      C1250   1.495       .  A
C1250     Br1251   1.990       .  S
C1255      C1256   1.410       .  A
C1255      C1260   1.433       .  A
C1255      H1262   1.081       .  S
C1257     Br1264   1.909       .  S
C1258      C1707   1.414   1_545  A
C1259      C1706   1.414       .  A
C1259      C1260   1.435       .  A
C1260     Br1261   1.923       .  S
C1265      H1720   1.077       .  S
C1266      C1267   1.388       .  A
C1267      C1268   1.411       .  A
C1267     Br1274   1.874       .  S
C1268      C1269   1.409       .  A
C1268      H1273   1.035       .  S
C1269      C1270   1.388       .  A
H1272      C1713   1.077   1_545  S
C1275      C1280   1.399       .  A
C1275      H1282   1.049       .  S
C1276      C1277   1.479       .  A
C1277      C1278   1.441       .  A
C1277     Br1284   1.908       .  S
C1278      C1279   1.396       .  A
C1278      H1283   1.084       .  S
C1280     Br1281   1.864       .  S
C1285      C1286   1.379       .  A
C1285      C1290   1.420       .  A
C1285      H1292   1.085       .  S
C1286      C1287   1.383       .  A
C1287      C1288   1.403       .  A
C1287     Br1294   1.860       .  S
C1288      C1289   1.399       .  A
C1288      H1293   1.074       .  S
C1289      C1290   1.486       .  A
C1290     Br1739   1.957       .  S
Br1291     C1738   1.956       .  S
C1295      C1296   1.376       .  A
C1295      C1300   1.426       .  A
C1295      H1302   1.062       .  S
C1296      C1297   1.376       .  A
C1297      C1298   1.418       .  A
C1297     Br1304   1.910       .  S
C1298      C1299   1.404       .  A
C1298      H1303   1.014       .  S
C1299      C1300   1.429       .  A
C1300     Br1301   1.886       .  S
C1305      C1306   1.414   1_455  A
C1306      C1307   1.419       .  A
C1307      C1308   1.406       .  A
C1307     Br1314   1.847       .  S
C1308      C1309   1.379       .  A
C1308      H1313   1.092       .  S
C1310     Br1311   1.904       .  S
C1315      C1320   1.414       .  A
C1315      H1322   1.080       .  S
C1316      C1317   1.420       .  A
C1317      C1318   1.413       .  A
C1318      C1319   1.381       .  A
C1320     Br1321   1.897       .  S
C1325      C1326   1.383       .  A
C1325      C1330   1.369       .  A
C1325      H1332   0.984       .  S
C1326      C1327   1.382       .  A
C1327      C1328   1.433       .  A
C1327     Br1334   1.889       .  S
C1328      C1329   1.407       .  A
C1328      H1333   1.062       .  S
C1329      C1330   1.371       .  A
C1330     Br1331   1.931       .  S
C1335      C1336   1.445   1_554  A
C1335      C1340   1.430       .  A
C1335      H1342   1.071       .  S
C1336      C1337   1.470       .  A
C1337      C1338   1.390       .  A
C1337     Br1344   1.995       .  S
C1338      C1339   1.367       .  A
C1338      H1343   1.087       .  S
C1339      C1340   1.402   1_556  A
C1340     Br1341   1.895       .  S
C1345      C1550   1.559       .  S
C1345      C1560   1.723       .  S
C1345      C1570   2.264       .  S
C1345      C1599   2.209       .  S
C1346      C1530   1.596   1_556  S
C1346      C1764   1.617       .  S
C1346      C1569   2.265       .  S
O1347      C1357   1.251       .  A
O1348      C1358   1.256       .  A
O1348      V1355   1.932       .  S
O1349      C1359   1.267       .  A
O1349      V1579   1.924   1_554  S
O1350      C1360   1.260       .  A
O1350      V1355   1.924       .  S
O1351      C1360   1.261       .  A
O1351      V1356   1.911       .  S
O1352      C1359   1.250       .  A
O1352      V1580   1.913   1_554  S
O1353      C1358   1.274       .  A
O1353      V1356   1.935       .  S
O1354      C1357   1.262       .  A
V1355      O1573   1.924       .  S
V1355      V1356   1.993       .  T
V1356      O1576   1.913       .  S
C1357      C1563   1.500       .  S
C1358      C1503   1.505       .  S
C1359      C1510   1.500       .  S
C1360      C1520   1.502       .  S
O1361      V1369   1.919       .  S
O1362      C1372   1.251   1_655  A
O1363      C1373   1.272       .  A
O1363      V1369   1.958       .  S
O1364      V1593   1.916   1_554  S
O1365      C1374   1.264       .  A
O1365      V1594   1.925   1_554  S
O1366      V1370   1.943       .  S
O1368      C1371   1.253       .  A
O1368      V1370   1.908       .  S
V1369      O1588   1.916       .  S
V1370      O1589   1.925       .  S
C1371      C1470   1.476       .  S
C1372      C1543   1.510   1_455  S
C1373      C1480   1.525       .  S
C1374      C1490   1.487       .  S
C1375      C1463   1.722   1_556  S
C1375      C1724   1.645       .  S
C1375      C1569   2.209       .  S
C1375      C1600   2.227       .  S
C1376      C1450   1.634       .  S
C1376      C1473   1.709       .  S
C1376      C1599   2.227       .  S
C1377      C1443   1.652       .  S
C1377      C1493   1.602       .  S
C1377      C1378   2.240       .  S
C1378      C1430   1.695       .  S
C1378      C1523   1.648       .  S
C1378      C1407   2.185       .  S
O1379      C1389   1.261       .  A
O1379      V1387   1.919       .  S
O1380      C1390   1.256       .  A
O1380      V1387   1.932       .  S
O1381      C1391   1.263       .  A
O1381      V1387   1.953       .  S
O1382      C1392   1.254       .  A
O1382      V1387   1.928       .  S
O1383      C1392   1.248       .  A
O1383      V1388   1.870       .  S
O1384      C1391   1.266       .  A
O1384      V1388   1.932       .  S
O1385      C1390   1.267       .  A
O1385      V1388   1.901       .  S
O1386      C1389   1.245       .  A
O1386      V1388   1.891       .  S
V1387      V1388   1.998       .  T
C1389      C1433   1.460       .  S
C1390      C1423   1.514       .  S
C1391      C1460   1.532       .  S
C1392      C1553   1.468       .  S
O1393      C1403   1.271       .  A
O1393      V1401   1.927       .  S
O1394      V1401   1.932       .  S
O1395      V1401   1.950       .  S
O1396      C1406   1.250       .  A
O1396      V1401   1.911       .  S
O1397      V1402   1.914       .  S
O1398      C1405   1.269       .  A
O1398      V1402   1.949       .  S
O1399      C1404   1.254       .  A
O1399      V1402   1.911       .  S
O1400      V1402   1.899       .  S
C1403      C1533   1.486       .  S
C1404      C1453   1.496       .  S
C1405      C1440   1.530       .  S
C1406      C1410   1.492       .  S
C1407      C1513   1.635       .  S
C1407      C1408   2.248       .  S
C1408      C1483   1.625       .  S
C1409      C1410   1.377       .  A
C1409      C1414   1.416       .  A
C1409      H1416   1.083       .  S
C1411      C1412   1.426       .  A
C1411     Br1418   1.919       .  S
C1412      H1417   1.046       .  S
C1413      C1414   1.476       .  A
C1414     Br1415   1.934       .  S
C1419      C1420   1.407       .  A
C1419      C1424   1.428       .  A
C1419      H1426   1.059       .  S
C1420      C1421   1.452       .  A
C1421      C1422   1.420       .  A
C1421     Br1428   1.925       .  S
C1422      C1423   1.397       .  A
C1422      H1427   1.083       .  S
C1423      C1424   1.391       .  A
C1424     Br1425   1.911       .  S
C1429      C1430   1.454       .  A
C1429      C1434   1.407       .  A
C1429      H1436   1.064       .  S
C1430      C1431   1.453       .  A
C1431      C1432   1.403       .  A
C1431     Br1438   1.873       .  S
C1432      C1433   1.363       .  A
C1432      H1437   1.092       .  S
C1433      C1434   1.381       .  A
C1434     Br1435   1.896       .  S
C1439      C1440   1.391       .  A
C1439      C1444   1.420       .  A
C1440      C1441   1.417       .  A
C1441      C1442   1.435       .  A
C1441     Br1448   1.898       .  S
C1442      C1443   1.412       .  A
C1442      H1447   1.078       .  S
C1443      C1444   1.459       .  A
C1449      C1454   1.400       .  A
C1449      H1456   1.005       .  S
C1450      C1451   1.428       .  A
C1451      C1452   1.436       .  A
C1451     Br1458   1.855       .  S
C1452      C1453   1.402       .  A
C1452      H1457   1.067       .  S
C1454     Br1455   1.913       .  S
C1459      C1460   1.381       .  A
C1459      C1464   1.422       .  A
C1459      H1466   1.090       .  S
C1460      C1461   1.405       .  A
C1461      C1462   1.431       .  A
C1461     Br1468   1.911       .  S
C1462      C1463   1.437       .  A
C1462      H1467   1.065       .  S
C1463      C1464   1.487       .  A
C1464     Br1465   1.939       .  S
C1469      C1470   1.361       .  A
C1469      C1474   1.404       .  A
C1469      H1476   1.103       .  S
C1470      C1695   1.387       .  A
C1471      C1694   1.387   1_554  A
C1471      C1472   1.441       .  A
C1471     Br1478   1.885       .  S
C1472      C1697   1.400   1_554  A
C1472      H1477   1.055       .  S
C1473      C1696   1.400       .  A
C1473      C1474   1.495       .  A
C1474     Br1475   1.990       .  S
C1479      C1480   1.410       .  A
C1479      C1484   1.433       .  A
C1479      H1486   1.081       .  S
C1481     Br1488   1.908       .  S
C1483      C1484   1.435       .  A
C1484     Br1485   1.923       .  S
C1490      C1491   1.389       .  A
C1491      C1492   1.411       .  A
C1491     Br1498   1.873       .  S
C1492      C1493   1.409       .  A
C1492      H1497   1.035       .  S
C1493      C1494   1.388       .  A
C1499      C1724   1.399   1_554  A
C1499      C1504   1.399       .  A
C1499      H1506   1.048       .  S
C1500      C1599   1.645       .  S
C1500      C1723   1.399       .  A
C1500      C1501   1.478       .  A
C1501      C1502   1.441       .  A
C1501     Br1508   1.908       .  S
C1502      C1503   1.396       .  A
C1502      H1507   1.084       .  S
C1503      C1728   1.377       .  A
C1504      C1727   1.377   1_554  A
C1504     Br1505   1.863       .  S
C1509      C1510   1.379       .  A
C1509      C1514   1.419   1_565  A
C1509      H1516   1.085   1_565  S
C1510      C1511   1.383       .  A
C1511      C1512   1.403       .  A
C1511     Br1518   1.860       .  S
C1512      C1513   1.399       .  A
C1512      H1517   1.075       .  S
C1513      C1514   1.485   1_565  A
C1519      C1520   1.376       .  A
C1519      C1524   1.425       .  A
C1519      H1526   1.062   1_565  S
C1520      C1521   1.376       .  A
C1521      C1522   1.419       .  A
C1521     Br1528   1.910       .  S
C1522      C1523   1.404       .  A
C1522      H1527   1.014       .  S
C1523      C1524   1.428       .  A
C1524     Br1525   1.885   1_565  S
C1529      C1530   1.414   1_455  A
C1530      C1531   1.419       .  A
C1531      C1532   1.405       .  A
C1531     Br1538   1.846       .  S
C1532      C1533   1.379       .  A
C1532      H1537   1.092       .  S
C1534     Br1535   1.904       .  S
C1539      C1764   1.443   1_554  A
C1539      C1544   1.415       .  A
C1539      H1546   1.080       .  S
C1540      C1570   1.617       .  S
C1540      C1763   1.443       .  A
C1540      C1541   1.420       .  A
C1541      C1542   1.413       .  A
C1542      C1543   1.381       .  A
C1543      C1768   1.404       .  A
C1544      C1767   1.404   1_554  A
C1544     Br1545   1.898       .  S
C1549      C1550   1.383       .  A
C1549      C1554   1.368       .  A
C1549      H1556   0.985       .  S
C1550      C1551   1.382       .  A
C1551      C1552   1.433       .  A
C1551     Br1558   1.889       .  S
C1552      C1553   1.407       .  A
C1552      H1557   1.062       .  S
C1553      C1554   1.371       .  A
C1554     Br1555   1.931       .  S
C1559      C1560   1.445       .  A
C1559      C1564   1.430       .  A
C1559      H1566   1.071       .  S
C1560      C1561   1.470       .  A
C1561      C1562   1.390       .  A
C1561     Br1568   1.995       .  S
C1562      C1563   1.367       .  A
C1562      H1567   1.087       .  S
C1563      C1564   1.402       .  A
C1564     Br1565   1.895       .  S
C1569      C1774   1.558       .  S
C1569      C1784   1.722       .  S
C1570      C1754   1.595       .  S
O1571      C1581   1.251   1_554  A
O1572      C1582   1.256       .  A
O1572      V1579   1.932       .  S
O1573      C1583   1.267       .  A
O1574      C1584   1.260       .  A
O1574      V1579   1.923       .  S
O1575      C1584   1.261       .  A
O1575      V1580   1.911       .  S
O1576      C1583   1.250       .  A
O1577      C1582   1.274       .  A
O1577      V1580   1.936       .  S
O1578      C1581   1.262       .  A
V1579      V1580   1.993       .  T
C1581      C1787   1.500       .  S
C1582      C1727   1.504       .  S
C1583      C1734   1.500       .  S
C1584      C1744   1.502       .  S
O1585      V1593   1.919       .  S
O1586      C1596   1.251   1_655  A
O1587      C1597   1.272       .  A
O1587      V1593   1.957       .  S
O1589      C1598   1.264       .  A
O1590      V1594   1.944       .  S
O1592      C1595   1.253       .  A
O1592      V1594   1.908       .  S
C1595      C1694   1.476       .  S
C1596      C1767   1.511   1_455  S
C1597      C1704   1.524       .  S
C1598      C1714   1.487       .  S
C1599      C1687   1.722       .  S
C1600      C1674   1.634       .  S
C1600      C1697   1.709       .  S
C1601      C1667   1.652       .  S
C1601      C1717   1.601       .  S
C1601      C1602   2.240       .  S
C1602      C1654   1.695       .  S
C1602      C1747   1.648       .  S
C1602      C1631   2.185       .  S
O1603      C1613   1.261       .  A
O1603      V1611   1.919       .  S
O1604      C1614   1.256       .  A
O1604      V1611   1.933       .  S
O1605      C1615   1.263       .  A
O1605      V1611   1.953       .  S
O1606      C1616   1.254       .  A
O1606      V1611   1.928       .  S
O1607      C1616   1.248       .  A
O1607      V1612   1.870       .  S
O1608      C1615   1.266       .  A
O1608      V1612   1.932       .  S
O1609      C1614   1.267       .  A
O1609      V1612   1.901       .  S
O1610      C1613   1.245       .  A
O1610      V1612   1.891       .  S
V1611      V1612   1.998       .  T
C1613      C1657   1.460       .  S
C1614      C1647   1.515       .  S
C1615      C1684   1.532       .  S
C1616      C1777   1.468       .  S
O1617      C1627   1.271       .  A
O1617      V1625   1.927       .  S
O1618      V1625   1.932       .  S
O1619      V1625   1.951       .  S
O1620      C1630   1.251       .  A
O1620      V1625   1.911       .  S
O1621      V1626   1.915       .  S
O1622      C1629   1.269       .  A
O1622      V1626   1.949       .  S
O1623      C1628   1.254       .  A
O1623      V1626   1.911       .  S
O1624      V1626   1.898       .  S
C1627      C1757   1.486       .  S
C1628      C1677   1.496       .  S
C1629      C1664   1.530       .  S
C1630      C1634   1.492       .  S
C1631      C1737   1.636       .  S
C1631      C1632   2.248       .  S
C1632      C1707   1.624       .  S
C1633      C1634   1.377       .  A
C1633      C1638   1.416       .  A
C1633      H1640   1.083       .  S
C1635      C1636   1.427       .  A
C1635     Br1642   1.920       .  S
C1636      H1641   1.046       .  S
C1637      C1638   1.476       .  A
C1638     Br1639   1.934       .  S
C1643      C1644   1.407       .  A
C1643      C1648   1.428       .  A
C1643      H1650   1.059       .  S
C1644      C1645   1.452       .  A
C1645      C1646   1.420       .  A
C1645     Br1652   1.925       .  S
C1646      C1647   1.397       .  A
C1646      H1651   1.082       .  S
C1647      C1648   1.391       .  A
C1648     Br1649   1.910       .  S
C1653      C1654   1.454       .  A
C1653      C1658   1.407       .  A
C1653      H1660   1.064       .  S
C1654      C1655   1.453       .  A
C1655      C1656   1.403       .  A
C1655     Br1662   1.873       .  S
C1656      C1657   1.363       .  A
C1656      H1661   1.092       .  S
C1657      C1658   1.382       .  A
C1658     Br1659   1.895       .  S
C1663      C1664   1.391       .  A
C1663      C1668   1.420       .  A
C1664      C1665   1.418       .  A
C1665      C1666   1.435       .  A
C1665     Br1672   1.898       .  S
C1666      C1667   1.412       .  A
C1666      H1671   1.078       .  S
C1667      C1668   1.459       .  A
C1673      C1678   1.400       .  A
C1673      H1680   1.005       .  S
C1674      C1675   1.428       .  A
C1675      C1676   1.436       .  A
C1675     Br1682   1.856       .  S
C1676      C1677   1.402       .  A
C1676      H1681   1.067       .  S
C1678     Br1679   1.914       .  S
C1683      C1684   1.381       .  A
C1683      C1688   1.422       .  A
C1683      H1690   1.090       .  S
C1684      C1685   1.405       .  A
C1685      C1686   1.431       .  A
C1685     Br1692   1.911       .  S
C1686      C1687   1.437       .  A
C1686      H1691   1.065       .  S
C1687      C1688   1.487       .  A
C1688     Br1689   1.939       .  S
C1693      C1694   1.361       .  A
C1693      C1698   1.404       .  A
C1693      H1700   1.103       .  S
C1695      C1696   1.441       .  A
C1695     Br1702   1.885       .  S
C1696      H1701   1.055       .  S
C1697      C1698   1.495       .  A
C1698     Br1699   1.990       .  S
C1703      C1704   1.410       .  A
C1703      C1708   1.433       .  A
C1703      H1710   1.081       .  S
C1705     Br1712   1.908       .  S
C1707      C1708   1.435       .  A
C1708     Br1709   1.923       .  S
C1714      C1715   1.388       .  A
C1715      C1716   1.411       .  A
C1715     Br1722   1.874       .  S
C1716      C1717   1.409       .  A
C1716      H1721   1.035       .  S
C1717      C1718   1.388       .  A
C1723      C1728   1.399       .  A
C1723      H1730   1.048       .  S
C1724      C1725   1.478       .  A
C1725      C1726   1.441       .  A
C1725     Br1732   1.909       .  S
C1726      C1727   1.396       .  A
C1726      H1731   1.084       .  S
C1728     Br1729   1.864       .  S
C1733      C1734   1.379       .  A
C1733      C1738   1.420   1_565  A
C1733      H1740   1.085   1_565  S
C1734      C1735   1.383       .  A
C1735      C1736   1.403       .  A
C1735     Br1742   1.860       .  S
C1736      C1737   1.399       .  A
C1736      H1741   1.074       .  S
C1737      C1738   1.486   1_565  A
C1743      C1744   1.376       .  A
C1743      C1748   1.426       .  A
C1743      H1750   1.062   1_565  S
C1744      C1745   1.376       .  A
C1745      C1746   1.418       .  A
C1745     Br1752   1.910       .  S
C1746      C1747   1.404       .  A
C1746      H1751   1.014       .  S
C1747      C1748   1.428       .  A
C1748     Br1749   1.885   1_565  S
C1753      C1754   1.414   1_455  A
C1754      C1755   1.419       .  A
C1755      C1756   1.406       .  A
C1755     Br1762   1.847       .  S
C1756      C1757   1.379       .  A
C1756      H1761   1.092       .  S
C1758     Br1759   1.904       .  S
C1763      C1768   1.414       .  A
C1763      H1770   1.080       .  S
C1764      C1765   1.420       .  A
C1765      C1766   1.413       .  A
C1766      C1767   1.381       .  A
C1768     Br1769   1.897       .  S
C1773      C1774   1.383       .  A
C1773      C1778   1.368       .  A
C1773      H1780   0.985       .  S
C1774      C1775   1.382       .  A
C1775      C1776   1.433       .  A
C1775     Br1782   1.889       .  S
C1776      C1777   1.407       .  A
C1776      H1781   1.062       .  S
C1777      C1778   1.371       .  A
C1778     Br1779   1.930       .  S
C1783      C1784   1.445   1_554  A
C1783      C1788   1.430       .  A
C1783      H1790   1.071       .  S
C1784      C1785   1.470       .  A
C1785      C1786   1.390       .  A
C1785     Br1792   1.995       .  S
C1786      C1787   1.367       .  A
C1786      H1791   1.087       .  S
C1787      C1788   1.402   1_556  A
C1788     Br1789   1.895       .  S
