geometry optimzed in LAMMPS
_audit_creation_date              2020-11-30 
_audit_creation_method            'lammps2cif' 
_symmetry_space_group_name_H-M    'P1' 
_symmetry_Int_Tables_number       1 
_symmetry_cell_setting            triclinic 
loop_ 
_symmetry_equiv_pos_as_xyz 
  x,y,z 
_cell_length_a                    39.586432432986804 
_cell_length_b                    39.63703220052598 
_cell_length_c                    39.5173158178195 
_cell_angle_alpha                 89.99990080050704 
_cell_angle_beta                  90.16278998368485 
_cell_angle_gamma                 89.879014445707 
loop_ 
_atom_site_label 
_atom_site_type_symbol 
_atom_site_fract_x 
_atom_site_fract_y 
_atom_site_fract_z 
_atom_site_charge 
O1          O  0.25396223  0.78563846  0.54318536    -0.80670
C2          C  0.13815385  0.77997705  0.45797272     0.98680
O3          O  0.15084672  0.75718270  0.47599683    -0.69790
O4          O  0.21360007  0.74352533  0.46220507    -0.73380
Al5        Al  0.19024616  0.75345057  0.50271049     1.48980
C6          C  0.24514742  0.74677913  0.46020795     0.93940
O7          O  0.24225312  0.82965819  0.45986418    -0.79600
O8          O  0.19068462  0.85269022  0.54141118    -0.73160
Al9        Al  0.24580413  0.80740226  0.50139494     1.90120
O10         O  0.19605592  0.85865863  0.46987969    -0.72230
O11         O  0.14005112  0.80584979  0.53330668    -0.72080
O12         O  0.14666960  0.81060022  0.46250955    -0.77740
O13         O  0.16616140  0.75780889  0.54308416    -0.75940
O14         O  0.20197435  0.79690948  0.50191078    -1.12080
O15         O  0.22700012  0.73930589  0.52955674    -0.71270
C16         C  0.24918440  0.75439293  0.54665049     0.99450
C17         C  0.22354138  0.85452796  0.45338782     0.95840
Al18       Al  0.17081908  0.82937164  0.50177979     1.55560
O19         O  0.26019404  0.76904351  0.47709475    -0.75890
C20         C  0.14278055  0.77819971  0.54964498     1.00010
C21         C  0.22143803  0.86170279  0.54438909     0.94890
O22         O  0.24313846  0.84847465  0.52549902    -0.81210
O23         O  0.73963609  0.21511994  0.53804842    -0.80670
C24         C  0.85762116  0.22437499  0.45802494     0.98680
O25         O  0.84485800  0.24651246  0.47683074    -0.69790
O26         O  0.78289684  0.25944478  0.46106941    -0.73380
Al27       Al  0.80454582  0.24932018  0.50208951     1.48980
C28         C  0.75213277  0.25397127  0.45583452     0.93940
O29         O  0.75639052  0.17158759  0.45629802    -0.79600
O30         O  0.80602536  0.15100217  0.53994953    -0.73160
Al31       Al  0.75044997  0.19385690  0.49727934     1.90120
O32         O  0.80223917  0.14325120  0.46897522    -0.72230
O33         O  0.85585568  0.19870024  0.53247330    -0.72080
O34         O  0.84958462  0.19349245  0.46179602    -0.77740
O35         O  0.82731560  0.24478796  0.54327788    -0.75940
O36         O  0.79384345  0.20562761  0.50003109    -1.12080
O37         O  0.76642806  0.26246755  0.52756951    -0.71270
C38         C  0.74435160  0.24595948  0.54322136     0.99450
C39         C  0.77539678  0.14674024  0.45126712     0.95840
Al40       Al  0.82592182  0.17405858  0.50075660     1.55560
O41         O  0.73636484  0.23144575  0.47154936    -0.75890
C42         C  0.85240003  0.22620025  0.54894596     1.00010
C43         C  0.77525526  0.14210157  0.54281301     0.94890
O44         O  0.75354205  0.15349472  0.52258517    -0.81210
O45         O  0.74220801  0.78736334  0.46073478    -0.80670
C46         C  0.85682151  0.77831336  0.54757356     0.98680
O47         O  0.84295747  0.75565096  0.53039865    -0.69790
O48         O  0.78018193  0.74504232  0.54276047    -0.73380
Al49       Al  0.80450585  0.75285662  0.50276847     1.48980
C50         C  0.74871413  0.74862747  0.54378009     0.93940
O51         O  0.75488917  0.83002970  0.54432059    -0.79600
O52         O  0.80699100  0.85071592  0.46210140    -0.73160
Al53       Al  0.75054914  0.80855712  0.50263752     1.90120
O54         O  0.80143008  0.85820845  0.53362585    -0.72230
O55         O  0.85635307  0.80304240  0.47113423    -0.72080
O56         O  0.84990965  0.80917282  0.54176640    -0.77740
O57         O  0.83007292  0.75499771  0.46336351    -0.75940
O58         O  0.79415647  0.79653241  0.50241767    -1.12080
O59         O  0.76807798  0.74009846  0.47485094    -0.71270
C60         C  0.74710206  0.75612526  0.45691622     0.99450
C61         C  0.77403250  0.85459354  0.55042254     0.95840
Al62       Al  0.82616473  0.82788521  0.50215132     1.55560
O63         O  0.73413656  0.77052110  0.52605440    -0.75890
C64         C  0.85405190  0.77444301  0.45647749     1.00010
C65         C  0.77672999  0.86132796  0.45973967     0.94890
O66         O  0.75469267  0.84994976  0.47931606    -0.81210
O67         O  0.45958139  0.25863660  0.21665304    -0.80670
C68         C  0.54149215  0.14063592  0.22494031     0.98680
O69         O  0.52195464  0.15279433  0.24680791    -0.69790
O70         O  0.53839566  0.21560984  0.25933883    -0.73380
Al71       Al  0.49728271  0.19400169  0.24961620     1.48980
C72         C  0.54210778  0.24678109  0.25477608     0.93940
O73         O  0.54061228  0.24475540  0.17072295    -0.79600
O74         O  0.46024050  0.19194357  0.15033729    -0.73160
Al75       Al  0.50015598  0.24880964  0.19443150     1.90120
O76         O  0.53078837  0.19709579  0.14408603    -0.72230
O77         O  0.46801158  0.14276405  0.19916228    -0.72080
O78         O  0.53913387  0.15045599  0.19436987    -0.77740
O79         O  0.45613727  0.17195651  0.24466126    -0.75940
O80         O  0.49901899  0.20519777  0.20589108    -1.12080
O81         O  0.47203865  0.23204069  0.26370996    -0.71270
C82         C  0.45561988  0.25409630  0.24777452     0.99450
C83         C  0.54653007  0.22502326  0.14660225     0.95840
Al84       Al  0.49949642  0.17309241  0.17443669     1.55560
O85         O  0.52614676  0.26256126  0.23217513    -0.75890
C86         C  0.45094438  0.14663217  0.22634748     1.00010
C87         C  0.45586299  0.22268811  0.14193854     0.94890
O88         O  0.47411964  0.24527971  0.15459127    -0.81210
O89         O  0.74292341  0.45863394  0.21870803    -0.80670
C90         C  0.85716454  0.54596313  0.22450969     0.98680
O91         O  0.84299209  0.52964462  0.24751243    -0.69790
O92         O  0.77999649  0.54075112  0.25919732    -0.73380
Al93       Al  0.80537082  0.50140555  0.25096735     1.48980
C94         C  0.74847974  0.54142436  0.25554137     0.93940
O95         O  0.75322698  0.54065663  0.17217159    -0.79600
O96         O  0.80731384  0.46127100  0.15123271    -0.73160
Al97       Al  0.75038698  0.49967781  0.19569530     1.90120
O98         O  0.80120117  0.53192469  0.14528173    -0.72230
O99         O  0.85603887  0.46924653  0.19888700    -0.72080
O100        O  0.85028600  0.53966854  0.19368186    -0.77740
O101        O  0.83219259  0.46268965  0.24873402    -0.75940
O102        O  0.79430763  0.50046338  0.20703162    -1.12080
O103        O  0.76969545  0.47335928  0.26497736    -0.71270
C104        C  0.74732583  0.45622879  0.25024294     0.99450
C105        C  0.77334850  0.54782976  0.14864360     0.95840
Al106      Al  0.82604934  0.50053490  0.17493278     1.55560
O107        O  0.73434580  0.52423879  0.23302019    -0.75890
C108        C  0.85468423  0.45506327  0.22773408     1.00010
C109        C  0.77671006  0.45660335  0.14281871     0.94890
O110        O  0.75397544  0.47439120  0.15562000    -0.81210
O111        O  0.53717476  0.74330154  0.21735650    -0.80670
C112        C  0.45992271  0.86352036  0.22418164     0.98680
O113        O  0.48223254  0.85344335  0.24457449    -0.69790
O114        O  0.46355160  0.79269328  0.26160981    -0.73380
Al115      Al  0.50503287  0.81136096  0.24845760     1.48980
C116        C  0.45606000  0.76222148  0.25690127     0.93940
O117        O  0.45463720  0.76050209  0.17335162    -0.79600
O118        O  0.53754072  0.80896351  0.14941456    -0.73160
Al119      Al  0.49612950  0.75493894  0.19579176     1.90120
O120        O  0.46740297  0.80498280  0.14323214    -0.72230
O121        O  0.53091860  0.86051571  0.19577401    -0.72080
O122        O  0.46008613  0.85247033  0.19382278    -0.77740
O123        O  0.54720155  0.83067601  0.23971185    -0.75940
O124        O  0.50001399  0.79850819  0.20553698    -1.12080
O125        O  0.52833949  0.77273838  0.26314475    -0.71270
C126        C  0.54240301  0.74854231  0.24827562     0.99450
C127        C  0.44968400  0.77865255  0.14780908     0.95840
Al128      Al  0.49904010  0.82941614  0.17299359     1.55560
O129        O  0.47030157  0.74451542  0.23455968    -0.75890
C130        C  0.55044962  0.85616450  0.22114143     1.00010
C131        C  0.54067873  0.77779814  0.14183248     0.94890
O132        O  0.52132120  0.75630042  0.15498991    -0.81210
O133        O  0.25800861  0.53922116  0.21879465    -0.80670
C134        C  0.14029650  0.45894507  0.22671135     0.98680
O135        O  0.15133295  0.47998121  0.24779301    -0.69790
O136        O  0.21333991  0.46210028  0.26206145    -0.73380
Al137      Al  0.19281069  0.50360473  0.25114897     1.48980
C138        C  0.24422113  0.45647804  0.25689664     0.93940
O139        O  0.24361178  0.45763722  0.17363301    -0.79600
O140        O  0.19245538  0.53926742  0.15168526    -0.73160
Al141      Al  0.24800862  0.49841078  0.19679310     1.90120
O142        O  0.19731060  0.46865115  0.14531462    -0.72230
O143        O  0.14218209  0.53160853  0.19956981    -0.72080
O144        O  0.14998780  0.46084041  0.19597637    -0.77740
O145        O  0.17151829  0.54557762  0.24479989    -0.75940
O146        O  0.20447858  0.50062531  0.20759259    -1.12080
O147        O  0.23152988  0.52729288  0.26580294    -0.71270
C148        C  0.25427869  0.54274301  0.25011506     0.99450
C149        C  0.22498481  0.45236418  0.14847127     0.95840
Al150      Al  0.17286849  0.50010620  0.17559036     1.55560
O151        O  0.26060594  0.47223532  0.23467770    -0.75890
C152        C  0.14625480  0.54988082  0.22588436     1.00010
C153        C  0.22345808  0.54296120  0.14360068     0.94890
O154        O  0.24537703  0.52393612  0.15653651    -0.81210
O155        O  0.21692954  0.53628048  0.74207743    -0.80670
C156        C  0.22156465  0.45904661  0.86285103     0.98680
O157        O  0.24369361  0.47887840  0.85183936    -0.69790
O158        O  0.25922252  0.46087680  0.79022625    -0.73380
Al159      Al  0.24796760  0.50237813  0.81011905     1.48980
C160        C  0.25490758  0.45511017  0.75925356     0.93940
O161        O  0.17113028  0.45546585  0.75948468    -0.79600
O162        O  0.14973991  0.53953780  0.80763080    -0.73160
Al163      Al  0.19443453  0.49621375  0.75361621     1.90120
O164        O  0.14168833  0.46949628  0.80421987    -0.72230
O165        O  0.19621009  0.53242192  0.85928012    -0.72080
O166        O  0.19123985  0.46135690  0.85224787    -0.77740
O167        O  0.24199816  0.54417039  0.83072701    -0.75940
O168        O  0.20472017  0.49980547  0.79742848    -1.12080
O169        O  0.26274075  0.52634860  0.77186268    -0.71270
C170        C  0.24764325  0.54138490  0.74825917     0.99450
C171        C  0.14577381  0.45123916  0.77800764     0.95840
Al172      Al  0.17225680  0.50065433  0.82846257     1.55560
O173        O  0.23240270  0.46983225  0.74222410    -0.75890
C174        C  0.22337242  0.54942944  0.85578931     1.00010
C175        C  0.14166549  0.54226421  0.77648846     0.94890
O176        O  0.15425167  0.52245967  0.75501072    -0.81210
O177        O  0.45944132  0.74702619  0.78347429    -0.80670
C178        C  0.54403706  0.86264639  0.78137902     0.98680
O179        O  0.52598410  0.85026861  0.75854113    -0.69790
O180        O  0.54157145  0.78712517  0.74592573    -0.73380
Al181      Al  0.50067619  0.81035090  0.75422267     1.48980
C182        C  0.54332827  0.75555072  0.74948931     0.93940
O183        O  0.53890542  0.75613640  0.83402037    -0.79600
O184        O  0.46095894  0.81050140  0.85439044    -0.73160
Al185      Al  0.49938817  0.75441781  0.80829248     1.90120
O186        O  0.53190773  0.80445207  0.86025235    -0.72230
O187        O  0.46892289  0.85984662  0.80631298    -0.72080
O188        O  0.54019613  0.85307526  0.81185859    -0.77740
O189        O  0.46025745  0.83430173  0.75749685    -0.75940
O190        O  0.50018526  0.79829537  0.79802922    -1.12080
O191        O  0.47545315  0.77339566  0.73794775    -0.71270
C192        C  0.45856572  0.75053405  0.75185597     0.99450
C193        C  0.54644466  0.77579026  0.85777687     0.95840
Al194      Al  0.50047074  0.82946379  0.83054573     1.55560
O195        O  0.52637072  0.74082533  0.77186578    -0.75890
C196        C  0.45363048  0.85778392  0.77784843     1.00010
C197        C  0.45502461  0.77962685  0.86103598     0.94890
O198        O  0.47206660  0.75711883  0.84684705    -0.81210
O199        O  0.78328693  0.46113098  0.74540210    -0.80670
C200        C  0.77657603  0.54302525  0.86325010     0.98680
O201        O  0.75483906  0.52434852  0.84993040    -0.69790
O202        O  0.74308386  0.54230371  0.78736475    -0.73380
Al203      Al  0.75146395  0.50054807  0.80906606     1.48980
C204        C  0.74692254  0.54507699  0.75583661     0.93940
O205        O  0.82930258  0.54258140  0.75850806    -0.79600
O206        O  0.85084997  0.46143668  0.81007297    -0.73160
Al207      Al  0.80607573  0.50203629  0.75439660     1.90120
O208        O  0.85697626  0.53269879  0.80565930    -0.72230
O209        O  0.80217837  0.46853474  0.85942895    -0.72080
O210        O  0.80733470  0.53990520  0.85421731    -0.77740
O211        O  0.75522538  0.45921162  0.83124877    -0.75940
O212        O  0.79510237  0.50107736  0.79803116    -1.12080
O213        O  0.73660228  0.47629856  0.77088809    -0.71270
C214        C  0.75172839  0.45911919  0.74892065     0.99450
C215        C  0.85378404  0.54882924  0.77775866     0.95840
Al216      Al  0.82686783  0.50068055  0.82989915     1.55560
O217        O  0.76867959  0.52783433  0.74042287    -0.75890
C218        C  0.77446102  0.45233856  0.85566327     1.00010
C219        C  0.85980463  0.45842188  0.77924615     0.94890
O220        O  0.84626198  0.47687269  0.75732229    -0.81210
O221        O  0.53585628  0.25814224  0.78478445    -0.80670
C222        C  0.45909926  0.13762568  0.78078799     0.98680
O223        O  0.47932024  0.14858867  0.75893863    -0.69790
O224        O  0.45893931  0.20996890  0.74444360    -0.73380
Al225      Al  0.50140964  0.19104189  0.75453760     1.48980
C226        C  0.45230883  0.24066795  0.74934047     0.93940
O227        O  0.45604980  0.24181719  0.83248285    -0.79600
O228        O  0.53953133  0.19304725  0.85295822    -0.73160
Al229      Al  0.49599938  0.24702547  0.80816245     1.90120
O230        O  0.46924111  0.19598778  0.86080403    -0.72230
O231        O  0.53214527  0.14227169  0.80589064    -0.72080
O232        O  0.46093344  0.14852310  0.81107722    -0.77740
O233        O  0.54408544  0.17148829  0.76026406    -0.75940
O234        O  0.49921944  0.20342889  0.79790185    -1.12080
O235        O  0.52369858  0.23010848  0.73885760    -0.71270
C236        C  0.53909783  0.25368593  0.75347986     0.99450
C237        C  0.45178719  0.22275075  0.85737561     0.95840
Al238      Al  0.50036915  0.17230074  0.83019264     1.55560
O239        O  0.46819662  0.25809622  0.77077544    -0.75890
C240        C  0.54974914  0.14661243  0.77920807     1.00010
C241        C  0.54229755  0.22407126  0.86118937     0.94890
O242        O  0.52283755  0.24544399  0.84788129    -0.81210
O243        O  0.25653084  0.21264685  0.46073359    -0.80670
C244        C  0.13906185  0.22337187  0.54277644     0.98680
O245        O  0.15127817  0.24464593  0.52267940    -0.69790
O246        O  0.21448058  0.25756960  0.53821128    -0.73380
Al247      Al  0.19191940  0.24677001  0.49741584     1.48980
C248        C  0.24572438  0.25268117  0.54220090     0.93940
O249        O  0.24203754  0.16844668  0.54297751    -0.79600
O250        O  0.18896621  0.14799513  0.46189631    -0.73160
Al251      Al  0.24639541  0.19128256  0.50182596     1.90120
O252        O  0.19473880  0.14153399  0.53223520    -0.72230
O253        O  0.13965862  0.19624256  0.47031609    -0.72080
O254        O  0.14853628  0.19264791  0.54104649    -0.77740
O255        O  0.16902275  0.24101681  0.45633048    -0.75940
O256        O  0.20285293  0.20316471  0.50025169    -1.12080
O257        O  0.22943613  0.25972066  0.47143255    -0.71270
C258        C  0.25151196  0.24346834  0.45550296     0.99450
C259        C  0.22238036  0.14428469  0.54848062     0.95840
Al260      Al  0.17053003  0.17202081  0.50132853     1.55560
O261        O  0.26057607  0.22907343  0.52697388    -0.75890
C262        C  0.14376906  0.22238293  0.45201763     1.00010
C263        C  0.21971125  0.13929957  0.45775054     0.94890
O264        O  0.24237003  0.15118714  0.47653010    -0.81210
C265        C  0.37095751  0.32829009  0.67012211     0.04250
C266        C  0.36239285  0.35963228  0.68376769    -0.11890
C267        C  0.33526264  0.37765229  0.67032583     0.01760
C268        C  0.32004201  0.36714492  0.64015697    -0.10420
C269        C  0.32863176  0.33590339  0.62621717     0.04250
C270        C  0.35443666  0.31675200  0.64114127    -0.09840
H271        H  0.37340102  0.36751465  0.70765185     0.09840
H272        H  0.29855127  0.38105546  0.63032063     0.07370
H273        H  0.35914681  0.29123072  0.63245221     0.07220
C274        C  0.33368646  0.33238600  0.37893717     0.04250
C275        C  0.32021384  0.36283855  0.36720410    -0.11890
C276        C  0.33366067  0.37829816  0.33843930     0.01760
C277        C  0.36387008  0.36599726  0.32475761    -0.10420
C278        C  0.37705700  0.33531219  0.33609270     0.04250
C279        C  0.36318891  0.31970515  0.36445564    -0.09840
H280        H  0.29639532  0.37155106  0.37741131     0.09840
H281        H  0.37393540  0.37731215  0.30195927     0.07370
H282        H  0.37247523  0.29502185  0.37182758     0.07220
C283        C  0.66567189  0.32981800  0.62722974     0.04250
C284        C  0.68071301  0.36002266  0.63674400    -0.11890
C285        C  0.66844283  0.37760913  0.66464787     0.01760
C286        C  0.63863564  0.36712253  0.68041648    -0.10420
C287        C  0.62362093  0.33655548  0.67103329     0.04250
C288        C  0.63723155  0.31813138  0.64405772    -0.09840
H289        H  0.70433245  0.36756621  0.62514025     0.09840
H290        H  0.62938637  0.38074062  0.70228635     0.07370
H291        H  0.62794845  0.29306600  0.63826466     0.07220
C292        C  0.66301859  0.62659001  0.67180598     0.04250
C293        C  0.67836253  0.63589007  0.64151969    -0.11890
C294        C  0.66571265  0.66303531  0.62301042     0.01760
C295        C  0.63561152  0.67862118  0.63272567    -0.10420
C296        C  0.62066338  0.66998839  0.66348976     0.04250
C297        C  0.63397181  0.64324438  0.68250028    -0.09840
H298        H  0.70251194  0.62494160  0.63458152     0.09840
H299        H  0.62642214  0.70029813  0.61871446     0.07370
H300        H  0.62376474  0.63739985  0.70722783     0.07220
C301        C  0.38072291  0.66226053  0.66843316     0.04250
C302        C  0.36392825  0.68181621  0.64390319    -0.11890
C303        C  0.33256024  0.67194295  0.63128575     0.01760
C304        C  0.31735686  0.64276364  0.64352428    -0.10420
C305        C  0.33372975  0.62299818  0.66764251     0.04250
C306        C  0.36657530  0.63123569  0.67792248    -0.09840
H307        H  0.37359016  0.70613701  0.63645591     0.09840
H308        H  0.29141037  0.63722112  0.63659514     0.07370
H309        H  0.37915320  0.61526069  0.69629232     0.07220
C310        C  0.33794533  0.62582689  0.33143500     0.04250
C311        C  0.32133035  0.63585953  0.36086250    -0.11890
C312        C  0.32983696  0.66635717  0.37628972     0.01760
C313        C  0.35623957  0.68581135  0.36331694    -0.10420
C314        C  0.37329914  0.67537881  0.33429339     0.04250
C315        C  0.36514724  0.64449867  0.31930734    -0.09840
H316        H  0.29925489  0.62211629  0.36934780     0.09840
H317        H  0.36085866  0.71080497  0.37347304     0.07370
H318        H  0.37710831  0.63708340  0.29578453     0.07220
C319        C  0.66539658  0.66731486  0.37804225     0.04250
C320        C  0.67473074  0.63384026  0.37151403    -0.11890
C321        C  0.66330021  0.61799553  0.34204219     0.01760
C322        C  0.63691729  0.63217620  0.32335184    -0.10420
C323        C  0.62563012  0.66455059  0.33111790     0.04250
C324        C  0.64050745  0.68230234  0.35779997    -0.09840
H325        H  0.69457847  0.62187607  0.38613622     0.09840
H326        H  0.62801733  0.61979113  0.30055726     0.07370
H327        H  0.63458716  0.70883222  0.36074730     0.07220
C328        C  0.61627080  0.33543720  0.33870854     0.04250
C329        C  0.63294389  0.32142763  0.36642348    -0.11890
C330        C  0.66387527  0.33468893  0.37677863     0.01760
C331        C  0.67675701  0.36330896  0.36097553    -0.10420
C332        C  0.65936707  0.37819605  0.33391929     0.04250
C333        C  0.62808397  0.36516321  0.32401342    -0.09840
H334        H  0.62455536  0.29740966  0.37651018     0.09840
H335        H  0.70225550  0.37129980  0.36700881     0.07370
H336        H  0.61538938  0.37511488  0.30180370     0.07220
O337        O  0.75444218  0.04292529  0.71661825    -0.80670
C338        C  0.63920048  0.95771578  0.72247904     0.98680
O339        O  0.65186640  0.97577651  0.74519442    -0.69790
O340        O  0.71488252  0.96176858  0.75737555    -0.73380
Al341      Al  0.69138535  0.00213116  0.74860219     1.48980
C342        C  0.74641432  0.95979181  0.75394108     0.93940
O343        O  0.74410588  0.96100386  0.67045449    -0.79600
O344        O  0.69056476  0.04083022  0.64873164    -0.73160
Al345      Al  0.74676047  0.00174686  0.69407065     1.90120
O346        O  0.69611230  0.96980533  0.64338958    -0.72230
O347        O  0.64100178  0.03279948  0.69642800    -0.72080
O348        O  0.64770618  0.96210566  0.69176834    -0.77740
O349        O  0.66689410  0.04230091  0.74491822    -0.75940
O350        O  0.70286962  0.00173047  0.70486470    -1.12080
O351        O  0.72834501  0.02845253  0.76317874    -0.71270
C352        C  0.75056338  0.04537036  0.74813469     0.99450
C353        C  0.72426168  0.95436106  0.64646469     0.95840
Al354      Al  0.67134754  0.00142365  0.67266512     1.55560
O355        O  0.76154343  0.97685468  0.73194343    -0.75890
C356        C  0.64344140  0.04861867  0.72440434     1.00010
C357        C  0.72131859  0.04430382  0.63997767     0.94890
O358        O  0.74345787  0.02639981  0.65379028    -0.81210
C359        C  0.87667716  0.17136456  0.83456258     0.04250
C360        C  0.86651740  0.14130947  0.81949683    -0.11890
C361        C  0.83724396  0.12532558  0.83073127     0.01760
C362        C  0.82050234  0.13746925  0.85943342    -0.10420
C363        C  0.83110873  0.16738707  0.87476693     0.04250
C364        C  0.85950395  0.18411030  0.86240097    -0.09840
H365        H  0.87876331  0.13286052  0.79647323     0.09840
H366        H  0.79719662  0.12575766  0.86761374     0.07370
H367        H  0.86614506  0.20885733  0.87204674     0.07220
O368        O  0.04083317  0.24391714  0.71601577    -0.80670
C369        C  0.95668299  0.36047700  0.72389726     0.98680
O370        O  0.97662809  0.34867143  0.74559774    -0.69790
O371        O  0.96189264  0.28628236  0.75781957    -0.73380
Al372      Al  0.00252795  0.30866194  0.74819279     1.48980
C373        C  0.95810474  0.25518008  0.75308194     0.93940
O374        O  0.95991532  0.25638875  0.66902728    -0.79600
O375        O  0.03837018  0.31065395  0.64822434    -0.73160
Al376      Al  0.00031934  0.25332277  0.69328172     1.90120
O377        O  0.96765136  0.30466065  0.64296551    -0.72230
O378        O  0.03055608  0.35985494  0.69663469    -0.72080
O379        O  0.95982414  0.35187099  0.69300749    -0.77740
O380        O  0.04330344  0.33215198  0.74324671    -0.75940
O381        O  0.00072259  0.29718726  0.70445882    -1.12080
O382        O  0.02851756  0.27135571  0.76246847    -0.71270
C383        C  0.04460163  0.24874302  0.74713127     0.99450
C384        C  0.95279848  0.27625598  0.64531702     0.95840
Al385      Al  0.99922363  0.32916794  0.67273419     1.55560
O386        O  0.97435865  0.23940344  0.73080286    -0.75890
C387        C  0.04810212  0.35658678  0.72357529     1.00010
C388        C  0.04387576  0.27988735  0.64061361     0.94890
O389        O  0.02654966  0.25697163  0.65382446    -0.81210
O390        O  0.24048798  0.96586471  0.72007383    -0.80670
C391        C  0.36041185  0.04393818  0.72403951     0.98680
O392        O  0.34825054  0.02549547  0.74675277    -0.69790
O393        O  0.28675464  0.04375960  0.75991348    -0.73380
Al394      Al  0.30688243  0.00184910  0.75085750     1.48980
C395        C  0.25601287  0.04978594  0.75472819     0.93940
O396        O  0.25671840  0.04490296  0.67145012    -0.79600
O397        O  0.30595426  0.96198898  0.65222982    -0.73160
Al398      Al  0.25137689  0.00534264  0.69625265     1.90120
O399        O  0.30298414  0.03237782  0.64378982    -0.72230
O400        O  0.35620790  0.96952796  0.70006313    -0.72080
O401        O  0.35101256  0.04017444  0.69342974    -0.77740
O402        O  0.32819089  0.95991083  0.74684680    -0.75940
O403        O  0.29505778  0.00276169  0.70711591    -1.12080
O404        O  0.26814631  0.97848162  0.76625908    -0.71270
C405        C  0.24479754  0.96284218  0.75141429     0.99450
C406        C  0.27613072  0.04990543  0.64693351     0.95840
Al407      Al  0.32653378  0.00110653  0.67496175     1.55560
O408        O  0.23918577  0.03359259  0.73305604    -0.75890
C409        C  0.35290521  0.95359237  0.72796379     1.00010
C410        C  0.27493392  0.95846148  0.64424683     0.94890
O411        O  0.25316396  0.97772289  0.65705165    -0.81210
C412        C  0.15919115  0.16826331  0.88284197     0.04250
C413        C  0.12742503  0.17637231  0.86933610    -0.11890
C414        C  0.11827929  0.16437935  0.83725484     0.01760
C415        C  0.13729420  0.13895700  0.82206093    -0.10420
C416        C  0.16864122  0.13001404  0.83559271     0.04250
C417        C  0.17953136  0.14483214  0.86569385    -0.09840
H418        H  0.11186862  0.19546445  0.88120096     0.09840
H419        H  0.12995455  0.12951411  0.79737998     0.07370
H420        H  0.20537735  0.14061668  0.87374287     0.07220
O421        O  0.04186149  0.71540825  0.75793370    -0.80670
C422        C  0.95766289  0.72388137  0.64181295     0.98680
O423        O  0.97829351  0.74491621  0.65336534    -0.69790
O424        O  0.96158570  0.75759382  0.71634201    -0.73380
Al425      Al  0.00279055  0.74768761  0.69428983     1.48980
C426        C  0.95815888  0.75322212  0.74778793     0.93940
O427        O  0.95972475  0.66961762  0.74687593    -0.79600
O428        O  0.03840489  0.64771857  0.69230729    -0.73160
Al429      Al  0.00050420  0.69316427  0.74950000     1.90120
O430        O  0.96757230  0.64312579  0.69868688    -0.72230
O431        O  0.03031258  0.69645621  0.64297319    -0.72080
O432        O  0.95940126  0.69332391  0.65168419    -0.77740
O433        O  0.04411095  0.74207918  0.67168061    -0.75940
O434        O  0.00071778  0.70414776  0.70576711    -1.12080
O435        O  0.02760463  0.76218409  0.73224737    -0.71270
C436        C  0.04436695  0.74681361  0.75440595     0.99450
C437        C  0.95271711  0.64576435  0.72716708     0.95840
Al438      Al  0.99905749  0.67260431  0.67387471     1.55560
O439        O  0.97488206  0.73092044  0.76324440    -0.75890
C440        C  0.04833086  0.72292212  0.64663771     1.00010
C441        C  0.04262535  0.63904921  0.72313079     0.94890
O442        O  0.02555468  0.65315586  0.74576371    -0.81210
C443        C  0.12430189  0.83100212  0.83870788     0.04250
C444        C  0.13284332  0.86142319  0.82309940    -0.11890
C445        C  0.16194932  0.87864321  0.83322803     0.01760
C446        C  0.18055309  0.86687677  0.86100806    -0.10420
C447        C  0.17112956  0.83726297  0.87736250     0.04250
C448        C  0.14263344  0.81962637  0.86658614    -0.09840
H449        H  0.11916769  0.86954023  0.80071794     0.09840
H450        H  0.20413082  0.87888879  0.86802245     0.07370
H451        H  0.13676797  0.79526894  0.87760598     0.07220
O452        O  0.28542531  0.76017393  0.96610775    -0.80670
C453        C  0.27648509  0.63977747  0.04347753     0.98680
O454        O  0.25480015  0.65303941  0.02443113    -0.69790
O455        O  0.24273313  0.71461754  0.04331626    -0.73380
Al456      Al  0.25182699  0.69447893  0.00122195     1.48980
C457        C  0.24833564  0.74524185  0.04931555     0.93940
O458        O  0.33029848  0.74132638  0.04767815    -0.79600
O459        O  0.34989474  0.69401031  0.96226399    -0.73160
Al460      Al  0.30749302  0.74827562  0.00677865     1.90120
O461        O  0.35832939  0.69568421  0.03318850    -0.72230
O462        O  0.30184797  0.64418692  0.96938546    -0.72080
O463        O  0.30740489  0.64852829  0.04053812    -0.77740
O464        O  0.25556300  0.67309503  0.95915285    -0.75940
O465        O  0.29559483  0.70506898  0.00307904    -1.12080
O466        O  0.23831126  0.73362152  0.97771331    -0.71270
C467        C  0.25407818  0.75645030  0.96232450     0.99450
C468        C  0.35503522  0.72187272  0.05163886     0.95840
Al469      Al  0.32696523  0.67303693  0.00144337     1.55560
O470        O  0.27019894  0.76155260  0.03316820    -0.75890
C471        C  0.27413734  0.64802373  0.95324469     1.00010
C472        C  0.35971779  0.72465390  0.96083265     0.94890
O473        O  0.34790848  0.74565114  0.98147426    -0.81210
O474        O  0.03774091  0.75640949  0.28691436    -0.80670
C475        C  0.95839196  0.63778252  0.28050609     0.98680
O476        O  0.97957428  0.64840080  0.25946106    -0.69790
O477        O  0.96060115  0.71018753  0.24472200    -0.73380
Al478      Al  0.00248805  0.69019077  0.25578045     1.48980
C479        C  0.95462922  0.74106081  0.24956751     0.93940
O480        O  0.95639878  0.74192175  0.33276517    -0.79600
O481        O  0.03825449  0.69104709  0.35472490    -0.73160
Al482      Al  0.99702255  0.74620683  0.30941864     1.90120
O483        O  0.96761423  0.69579750  0.36120777    -0.72230
O484        O  0.03080087  0.64038897  0.30748008    -0.72080
O485        O  0.95957971  0.64846688  0.31092741    -0.77740
O486        O  0.04475921  0.66969593  0.26243191    -0.75940
O487        O  0.99946890  0.70252922  0.29906564    -1.12080
O488        O  0.02573515  0.72850342  0.24091068    -0.71270
C489        C  0.04125442  0.75184826  0.25562313     0.99450
C490        C  0.95123688  0.72334557  0.35790020     0.95840
Al491      Al  0.99906162  0.67126525  0.33115690     1.55560
O492        O  0.97045544  0.75803443  0.27139370    -0.75890
C493        C  0.04938014  0.64466217  0.28144423     1.00010
C494        C  0.04117182  0.72192881  0.36334144     0.94890
O495        O  0.02259242  0.74398205  0.34995411    -0.81210
C496        C  0.16769757  0.83143664  0.13126442     0.04250
C497        C  0.13999607  0.81805163  0.14835004    -0.11890
C498        C  0.12303258  0.83692135  0.17298578     0.01760
C499        C  0.13435924  0.86931590  0.18077144    -0.10420
C500        C  0.16420570  0.88114353  0.16628331     0.04250
C501        C  0.17884338  0.86387448  0.13930126    -0.09840
H502        H  0.13357926  0.79173968  0.14465568     0.09840
H503        H  0.12305479  0.88324807  0.20145443     0.07370
H504        H  0.20175985  0.87357903  0.12798952     0.07220
O505        O  0.71523411  0.75856579  0.04303819    -0.80670
C506        C  0.72374325  0.64059221  0.96265865     0.98680
O507        O  0.74459698  0.65089610  0.98438310    -0.69790
O508        O  0.76018290  0.71233866  0.96797513    -0.73380
Al509      Al  0.74768943  0.69205907  0.00885629     1.48980
C510        C  0.75507234  0.74296695  0.96150177     0.93940
O511        O  0.67181671  0.74388108  0.96006622    -0.79600
O512        O  0.64766878  0.69331374  0.04149765    -0.73160
Al513      Al  0.69413197  0.74819586  0.00162419     1.90120
O514        O  0.64297890  0.69809243  0.97079119    -0.72230
O515        O  0.69475836  0.64239485  0.03477636    -0.72080
O516        O  0.69311921  0.65056184  0.96409217    -0.77740
O517        O  0.73982250  0.67075946  0.05049432    -0.75940
O518        O  0.70445649  0.70452896  0.00440300    -1.12080
O519        O  0.76184944  0.73030351  0.03345185    -0.71270
C520        C  0.74617703  0.75370751  0.04796198     0.99450
C521        C  0.64666908  0.72549473  0.95438452     0.95840
Al522      Al  0.67216686  0.67345147  0.00290535     1.55560
O523        O  0.73270796  0.75996891  0.97641261    -0.75890
C524        C  0.72049418  0.64589097  0.05389570     1.00010
C525        C  0.63919574  0.72428508  0.04433126     0.94890
O526        O  0.65326893  0.74598761  0.02599911    -0.81210
C527        C  0.87492358  0.83027488  0.17020792     0.04250
C528        C  0.86240063  0.85999770  0.18461849    -0.11890
C529        C  0.83514891  0.87680908  0.16952739     0.01760
C530        C  0.82316182  0.86610923  0.13800892    -0.10420
C531        C  0.83468425  0.83578933  0.12449273     0.04250
C532        C  0.86155903  0.81872090  0.13963324    -0.09840
H533        H  0.87090998  0.86742514  0.20962258     0.09840
H534        H  0.80093814  0.87798954  0.12711810     0.07370
H535        H  0.86852957  0.79392785  0.13029853     0.07220
O536        O  0.24435830  0.28292530  0.96111413    -0.80670
C537        C  0.36297946  0.27908666  0.04135438     0.98680
O538        O  0.35263360  0.25848525  0.01963500    -0.69790
O539        O  0.29103045  0.24545197  0.04039113    -0.73380
Al540      Al  0.30997610  0.25460421  0.99805668     1.48980
C541        C  0.26018578  0.25072878  0.04629926     0.93940
O542        O  0.25593459  0.33430682  0.03937018    -0.79600
O543        O  0.30994693  0.35469742  0.96266646    -0.73160
Al544      Al  0.25364193  0.30794210  0.00049812     1.90120
O545        O  0.30481611  0.35928905  0.03325522    -0.72230
O546        O  0.35898152  0.30567804  0.96868641    -0.72080
O547        O  0.35173969  0.30917307  0.04067679    -0.77740
O548        O  0.32919664  0.26057775  0.95558380    -0.75940
O549        O  0.29746046  0.29796475  0.99998366    -1.12080
O550        O  0.27104255  0.23763388  0.97646898    -0.71270
C551        C  0.24747866  0.25145204  0.96042487     0.99450
C552        C  0.27593979  0.35745150  0.04728444     0.95840
Al553      Al  0.32897251  0.32976210  0.00121080     1.55560
O554        O  0.24274849  0.27174680  0.02965693    -0.75890
C555        C  0.35433402  0.27929025  0.95046864     1.00010
C556        C  0.27901554  0.36102806  0.95630241     0.94890
O557        O  0.25602036  0.34595423  0.97198682    -0.81210
O558        O  0.24315025  0.04126818  0.28590331    -0.80670
C559        C  0.35900543  0.95646560  0.27977756     0.98680
O560        O  0.34595454  0.97432777  0.25707720    -0.69790
O561        O  0.28383601  0.96159508  0.24351531    -0.73380
Al562      Al  0.30718753  0.00136086  0.25354534     1.48980
C563        C  0.25268944  0.95839144  0.24789384     0.93940
O564        O  0.25484446  0.95891690  0.33138590    -0.79600
O565        O  0.30719230  0.03967980  0.35314834    -0.73160
Al566      Al  0.25156302  0.99988529  0.30808372     1.90120
O567        O  0.30226876  0.96856482  0.35902146    -0.72230
O568        O  0.35736382  0.03199104  0.30622466    -0.72080
O569        O  0.35120008  0.96138822  0.31062996    -0.77740
O570        O  0.33216243  0.04091607  0.25741268    -0.75940
O571        O  0.29553701  0.00047122  0.29728541    -1.12080
O572        O  0.27068288  0.02853640  0.23967109    -0.71270
C573        C  0.24835904  0.04538721  0.25474791     0.99450
C574        C  0.27436707  0.95274284  0.35579399     0.95840
Al575      Al  0.32696709  0.00041767  0.32965662     1.55560
O576        O  0.23715217  0.97496487  0.27001740    -0.75890
C577        C  0.35560867  0.04718684  0.27785156     1.00010
C578        C  0.27649268  0.04259315  0.36220462     0.94890
O579        O  0.25446377  0.02427103  0.34882817    -0.81210
O580        O  0.03817416  0.28780212  0.24565820    -0.80670
C581        C  0.95701949  0.27868746  0.36315965     0.98680
O582        O  0.97639106  0.25699962  0.35052577    -0.69790
O583        O  0.95999463  0.24356576  0.28752992    -0.73380
Al584      Al  0.00106086  0.25403337  0.30990379     1.48980
C585        C  0.95720973  0.24744286  0.25594496     0.93940
O586        O  0.95492853  0.33055491  0.26022619    -0.79600
O587        O  0.03797037  0.35268138  0.31063504    -0.73160
Al588      Al  0.99658089  0.30895553  0.25527303     1.90120
O589        O  0.96675604  0.35929330  0.30614414    -0.72230
O590        O  0.02993012  0.30535871  0.36099090    -0.72080
O591        O  0.95932595  0.30940339  0.35381638    -0.77740
O592        O  0.04235148  0.25930132  0.33258051    -0.75940
O593        O  0.99865357  0.29755412  0.29876514    -1.12080
O594        O  0.02610600  0.24059704  0.27201113    -0.71270
C595        C  0.04169029  0.25641793  0.24942220     0.99450
C596        C  0.94928540  0.35533004  0.27923885     0.95840
Al597      Al  0.99850141  0.32929378  0.33047727     1.55560
O598        O  0.97251496  0.27081294  0.24107478    -0.75890
C599        C  0.04743336  0.27860807  0.35726771     1.00010
C600        C  0.04065420  0.36178691  0.27976799     0.94890
O601        O  0.02035251  0.35002726  0.25842075    -0.81210
C602        C  0.16674637  0.13259102  0.17319486     0.04250
C603        C  0.18531847  0.14705642  0.14689220    -0.11890
C604        C  0.17268525  0.17467466  0.12912595     0.01760
C605        C  0.14098699  0.18767509  0.13721020    -0.10420
C606        C  0.12361388  0.17497307  0.16505390     0.04250
C607        C  0.13532493  0.14613473  0.18171658    -0.09840
H608        H  0.21108070  0.13891633  0.14237308     0.09840
H609        H  0.13194275  0.21041682  0.12486404     0.07370
H610        H  0.12187469  0.13667204  0.20358808     0.07220
O611        O  0.75750520  0.29040496  0.04375111    -0.80670
C612        C  0.64209138  0.27659746  0.95886134     0.98680
O613        O  0.65585479  0.25484693  0.97751078    -0.69790
O614        O  0.71888366  0.24444066  0.96434904    -0.73380
Al615      Al  0.69536738  0.25351353  0.00453394     1.48980
C616        C  0.75001286  0.24947784  0.96123976     0.93940
O617        O  0.74309479  0.33164098  0.95974795    -0.79600
O618        O  0.69050281  0.35170263  0.04210590    -0.73160
Al619      Al  0.74804050  0.31037181  0.00163220     1.90120
O620        O  0.69553838  0.35850108  0.97066786    -0.72230
O621        O  0.64207315  0.30294865  0.03370984    -0.72080
O622        O  0.64915912  0.30767592  0.96305783    -0.77740
O623        O  0.67088442  0.25704506  0.04457175    -0.75940
O624        O  0.70478924  0.29737870  0.00278911    -1.12080
O625        O  0.73275701  0.24203105  0.03232711    -0.71270
C626        C  0.75304918  0.25953139  0.04953882     0.99450
C627        C  0.72311944  0.35571901  0.95412314     0.95840
Al628      Al  0.67188419  0.32789154  0.00242120     1.55560
O629        O  0.76453306  0.27215313  0.97808416    -0.75890
C630        C  0.64569001  0.27542960  0.05009322     1.00010
C631        C  0.72057145  0.36284552  0.04435393     0.94890
O632        O  0.74286397  0.35184082  0.02473189    -0.81210
O633        O  0.75513983  0.95828295  0.28671527    -0.80670
C634        C  0.63970809  0.04434088  0.27944269     0.98680
O635        O  0.65261461  0.02626550  0.25680255    -0.69790
O636        O  0.71578186  0.03823920  0.24412803    -0.73380
Al637      Al  0.69165775  0.99865664  0.25390748     1.48980
C638        C  0.74689558  0.04110564  0.24978171     0.93940
O639        O  0.74397152  0.03893451  0.33417807    -0.79600
O640        O  0.68891587  0.96079083  0.35383691    -0.73160
Al641      Al  0.74657028  0.99875092  0.30967276     1.90120
O642        O  0.69520308  0.03131816  0.35963797    -0.72230
O643        O  0.64004203  0.96944342  0.30550889    -0.72080
O644        O  0.64769064  0.03963336  0.31026722    -0.77740
O645        O  0.66686298  0.95896193  0.25798904    -0.75940
O646        O  0.70276697  0.99934359  0.29796847    -1.12080
O647        O  0.72811390  0.97124050  0.23997185    -0.71270
C648        C  0.75018700  0.95451336  0.25557908     0.99450
C649        C  0.72366925  0.04606849  0.35746046     0.95840
Al650      Al  0.67064773  0.00022996  0.32969070     1.55560
O651        O  0.76127182  0.02446490  0.27275856    -0.75890
C652        C  0.64307733  0.95302428  0.27798879     1.00010
C653        C  0.71956400  0.95541969  0.36201283     0.94890
O654        O  0.74262329  0.97260749  0.34904645    -0.81210
C655        C  0.83020653  0.17342810  0.13468359     0.04250
C656        C  0.86109950  0.18367412  0.14801727    -0.11890
C657        C  0.87855239  0.16296271  0.17054293     0.01760
C658        C  0.86657386  0.13066605  0.17759458    -0.10420
C659        C  0.83375740  0.12162106  0.16765737     0.04250
C660        C  0.81639787  0.14257462  0.14474207    -0.09840
H661        H  0.86985910  0.20920055  0.14354506     0.09840
H662        H  0.88103958  0.11474377  0.19453731     0.07370
H663        H  0.79095458  0.13655256  0.13683171     0.07220
C664        C  0.83057476  0.82801018  0.87508382     0.04250
C665        C  0.85845534  0.81577045  0.85744984    -0.11890
C666        C  0.87132715  0.83373015  0.82991660     0.01760
C667        C  0.85662104  0.86436655  0.82053503    -0.10420
C668        C  0.82813016  0.87617460  0.83765356     0.04250
C669        C  0.81635763  0.85903287  0.86611037    -0.09840
H670        H  0.86792621  0.79066179  0.86295542     0.09840
H671        H  0.86512497  0.87710044  0.79782941     0.07370
H672        H  0.79364726  0.86777020  0.87868925     0.07220
C673        C  0.81882985  0.09477945  0.22308951     0.24720
C674        C  0.81436888  0.09657092  0.18760295    -0.23390
C675        C  0.78729720  0.07868857  0.17280967     0.19630
C676        C  0.76392129  0.06203669  0.19319421     0.24660
C677        C  0.76798203  0.06207656  0.22844759    -0.23330
C678        C  0.79585642  0.07792285  0.24307418     0.19560
F679        F  0.80071734  0.07751835  0.27714904    -0.13290
F680        F  0.84459079  0.11014615  0.23941065    -0.15650
F681        F  0.73810759  0.04489211  0.17846792    -0.15650
F682        F  0.78354625  0.07709138  0.13868300    -0.13290
C683        C  0.75807348  0.22649845  0.10194302     0.24720
C684        C  0.77355405  0.24240134  0.07450142    -0.23390
C685        C  0.80774946  0.23689837  0.06759413     0.19630
C686        C  0.82607778  0.21399165  0.08694615     0.24660
C687        C  0.81056015  0.19731512  0.11414879    -0.23330
C688        C  0.77668473  0.20456531  0.12222411     0.19560
F689        F  0.76168496  0.19062484  0.14972538    -0.13290
F690        F  0.72486750  0.23189727  0.10866673    -0.15650
F691        F  0.85856408  0.20710260  0.07833702    -0.15650
F692        F  0.82276550  0.25216338  0.04085434    -0.13290
C693        C  0.11302073  0.22837351  0.19518458     0.24720
C694        C  0.10067025  0.19729979  0.18310202    -0.23390
C695        C  0.06864020  0.18611201  0.19255774     0.19630
C696        C  0.04925427  0.20571160  0.21420886     0.24660
C697        C  0.06160088  0.23695980  0.22583387    -0.23330
C698        C  0.09318016  0.24852965  0.21573286     0.19560
F699        F  0.10575317  0.27806766  0.22776108    -0.13290
F700        F  0.14532237  0.23791763  0.18951139    -0.15650
F701        F  0.01865192  0.19398467  0.22417072    -0.15650
F702        F  0.05680509  0.15579650  0.18182553    -0.13290
C703        C  0.91222187  0.20446079  0.24866674     0.24720
C704        C  0.93871014  0.22329802  0.23507624    -0.23390
C705        C  0.94785045  0.21890733  0.20080703     0.19630
C706        C  0.93004833  0.19667178  0.18035754     0.24660
C707        C  0.90252270  0.17911335  0.19354647    -0.23330
C708        C  0.89367110  0.18320836  0.22780408     0.19560
F709        F  0.86496901  0.16958571  0.24026695    -0.13290
F710        F  0.90272131  0.20839475  0.28143178    -0.15650
F711        F  0.93832018  0.19378659  0.14714394    -0.15650
F712        F  0.97376268  0.23641461  0.18680758    -0.13290
C713        C  0.20623808  0.09227585  0.25010409     0.24720
C714        C  0.22668282  0.06776302  0.23463712    -0.23390
C715        C  0.22497371  0.06329716  0.19930293     0.19630
C716        C  0.20272746  0.08217802  0.18001573     0.24660
C717        C  0.18360077  0.10780997  0.19506080    -0.23330
C718        C  0.18533330  0.11269892  0.23034740     0.19560
F719        F  0.16847162  0.13841667  0.24551935    -0.13290
F720        F  0.20758253  0.09756331  0.28403573    -0.15650
F721        F  0.20089991  0.07631618  0.14617276    -0.15650
F722        F  0.24516903  0.04101133  0.18294718    -0.13290
C723        C  0.23862573  0.19586886  0.06449692     0.24720
C724        C  0.24268858  0.23041983  0.07066371    -0.23390
C725        C  0.22404765  0.24662928  0.09572969     0.19630
C726        C  0.20100980  0.22848916  0.11456402     0.24660
C727        C  0.19577188  0.19401026  0.10787067    -0.23330
C728        C  0.21498558  0.17768464  0.08292805     0.19560
F729        F  0.21010368  0.14451783  0.07583802    -0.13290
F730        F  0.25588050  0.18039769  0.03921059    -0.15650
F731        F  0.18420154  0.24473936  0.13949253    -0.15650
F732        F  0.22764386  0.28026446  0.10131404    -0.13290
C733        C  0.75843420  0.90716807  0.21651018     0.24720
C734        C  0.77226268  0.93294279  0.23612932    -0.23390
C735        C  0.80656399  0.94124445  0.23337003     0.19630
C736        C  0.82702164  0.92387331  0.21062782     0.24660
C737        C  0.81331585  0.89779318  0.19091749    -0.23330
C738        C  0.77892450  0.88915713  0.19452059     0.19560
F739        F  0.76531158  0.86259545  0.17761760    -0.13290
F740        F  0.72512448  0.89936524  0.21889674    -0.15650
F741        F  0.85999622  0.93268960  0.20753174    -0.15650
F742        F  0.81975970  0.96717027  0.25154898    -0.13290
C743        C  0.80729305  0.82159582  0.06977528     0.24720
C744        C  0.81099427  0.81610034  0.10448826    -0.23390
C745        C  0.79114859  0.79183277  0.12113388     0.19630
C746        C  0.76845262  0.77231282  0.10285599     0.24660
C747        C  0.76546687  0.77716017  0.06803904    -0.23330
C748        C  0.78464051  0.80189898  0.05145162     0.19560
F749        F  0.78203220  0.80617767  0.01744532    -0.13290
F750        F  0.82614546  0.84524278  0.05373547    -0.15650
F751        F  0.75038136  0.74793843  0.11874047    -0.15650
F752        F  0.79419880  0.78688593  0.15502968    -0.13290
C753        C  0.75976789  0.77620090  0.91007313     0.24720
C754        C  0.77574102  0.76025077  0.93718012    -0.23390
C755        C  0.81006592  0.76573549  0.94389608     0.19630
C756        C  0.82818037  0.78826340  0.92389161     0.24660
C757        C  0.81190775  0.80502801  0.89709971    -0.23330
C758        C  0.77783953  0.79803200  0.88979502     0.19560
F759        F  0.76202444  0.81188730  0.86275116    -0.13290
F760        F  0.72642689  0.77101543  0.90368266    -0.15650
F761        F  0.86111507  0.79451394  0.93119430    -0.15650
F762        F  0.82530226  0.75091001  0.97091604    -0.13290
C763        C  0.21915607  0.90762735  0.23858068     0.24720
C764        C  0.23328903  0.93706284  0.22574062    -0.23390
C765        C  0.22506825  0.94841961  0.19313857     0.19630
C766        C  0.20131320  0.93108120  0.17386259     0.24660
C767        C  0.18645735  0.90192147  0.18699976    -0.23330
C768        C  0.19656155  0.88955406  0.21891683     0.19560
F769        F  0.18565909  0.85925727  0.23043394    -0.13290
F770        F  0.22749541  0.89636792  0.26998905    -0.15650
F771        F  0.19285454  0.94254268  0.14258425    -0.15650
F772        F  0.23947335  0.97662061  0.18040955    -0.13290
C773        C  0.08318737  0.79838537  0.25028523     0.24720
C774        C  0.06135812  0.77502486  0.23507491    -0.23390
C775        C  0.05740243  0.77503767  0.19959534     0.19630
C776        C  0.07514638  0.79766579  0.17982133     0.24660
C777        C  0.09854367  0.81957739  0.19473818    -0.23330
C778        C  0.10191216  0.82028291  0.23027896     0.19560
F779        F  0.12456653  0.84067391  0.24583367    -0.13290
F780        F  0.08753113  0.79921201  0.28438417    -0.15650
F781        F  0.07042203  0.79724651  0.14574766    -0.15650
F782        F  0.03672634  0.75286700  0.18361782    -0.13290
C783        C  0.88458901  0.79791776  0.22332964     0.24720
C784        C  0.89528958  0.80690697  0.19056964    -0.23390
C785        C  0.92356589  0.79097796  0.17632508     0.19630
C786        C  0.94129126  0.76687436  0.19483377     0.24660
C787        C  0.93135840  0.75912188  0.22790149    -0.23330
C788        C  0.90302188  0.77461247  0.24212266     0.19560
F789        F  0.89363941  0.76749748  0.27437781    -0.13290
F790        F  0.85606241  0.81124979  0.23694468    -0.15650
F791        F  0.96923605  0.75246896  0.18124939    -0.15650
F792        F  0.93439672  0.79938007  0.14486039    -0.13290
C793        C  0.22371187  0.80723316  0.11552108     0.24720
C794        C  0.18850668  0.80894089  0.11033290    -0.23390
C795        C  0.17307601  0.78704716  0.08695205     0.19630
C796        C  0.19254059  0.76403686  0.06892192     0.24660
C797        C  0.22765462  0.76359397  0.07318501    -0.23330
C798        C  0.24318611  0.78520838  0.09644143     0.19560
F799        F  0.27728781  0.78503791  0.10047226    -0.13290
F800        F  0.23929495  0.82626907  0.13947581    -0.15650
F801        F  0.17739721  0.74367087  0.04580619    -0.15650
F802        F  0.13930103  0.78852530  0.08098110    -0.13290
C803        C  0.18199642  0.80958188  0.93217187     0.24720
C804        C  0.19424981  0.82093800  0.90105828    -0.23390
C805        C  0.22733089  0.81281771  0.89087213     0.19630
C806        C  0.24760498  0.79257326  0.91136616     0.24660
C807        C  0.23465018  0.77994368  0.94175372    -0.23330
C808        C  0.20204848  0.78917307  0.95242357     0.19560
F809        F  0.18946304  0.77819193  0.98238920    -0.13290
F810        F  0.15019631  0.81744208  0.94237018    -0.15650
F811        F  0.27892853  0.78364633  0.90061004    -0.15650
F812        F  0.23912245  0.82253959  0.86014375    -0.13290
C813        C  0.09677219  0.75653916  0.78724922     0.24720
C814        C  0.06423869  0.76669506  0.77794315    -0.23390
C815        C  0.05046511  0.79684085  0.79075962     0.19630
C816        C  0.06942418  0.81706942  0.81222997     0.24660
C817        C  0.10237585  0.80753448  0.82070076    -0.23330
C818        C  0.11599172  0.77710361  0.80828651     0.19560
F819        F  0.14856735  0.76840404  0.81483621    -0.13290
F820        F  0.11056490  0.72791935  0.77433329    -0.15650
F821        F  0.05602337  0.84630889  0.82413034    -0.15650
F822        F  0.01871434  0.80681836  0.78226464    -0.13290
C823        C  0.94439878  0.78089410  0.80220069     0.24720
C824        C  0.93663946  0.77558045  0.76777604    -0.23390
C825        C  0.90882609  0.79205497  0.75315056     0.19630
C826        C  0.88814649  0.81237173  0.77309134     0.24660
C827        C  0.89563347  0.81700189  0.80764779    -0.23330
C828        C  0.92425518  0.80172879  0.82179646     0.19560
F829        F  0.93217548  0.80631156  0.85495284    -0.13290
F830        F  0.97153590  0.76594144  0.81710744    -0.15650
F831        F  0.85974387  0.82575635  0.75911937    -0.15650
F832        F  0.90069203  0.78718969  0.72010073    -0.13290
C833        C  0.22276097  0.19500859  0.94753362     0.24720
C834        C  0.22233317  0.23031656  0.94320780    -0.23390
C835        C  0.19623048  0.24515459  0.92427805     0.19630
C836        C  0.17291369  0.22505029  0.90745903     0.24660
C837        C  0.17528290  0.18954308  0.90909428    -0.23330
C838        C  0.19900627  0.17496535  0.93122679     0.19560
F839        F  0.20037358  0.14098853  0.93562834    -0.13290
F840        F  0.24654267  0.17952922  0.96692906    -0.15650
F841        F  0.14946160  0.24085385  0.88816950    -0.15650
F842        F  0.19377218  0.27918046  0.92089426    -0.13290
C843        C  0.19774698  0.11878028  0.78093701     0.24720
C844        C  0.19275934  0.11055026  0.81522284    -0.23390
C845        C  0.21211748  0.08475412  0.83015667     0.19630
C846        C  0.23528781  0.06678762  0.81076042     0.24660
C847        C  0.23825334  0.07356060  0.77611431    -0.23330
C848        C  0.21973894  0.09975475  0.76138912     0.19560
F849        F  0.22279628  0.10669860  0.72800485    -0.13290
F850        F  0.18159096  0.14535105  0.76635704    -0.15650
F851        F  0.25337760  0.04151008  0.82529664    -0.15650
F852        F  0.20773477  0.07621216  0.86313016    -0.13290
C853        C  0.20374561  0.91569993  0.75668433     0.24720
C854        C  0.22128778  0.94268040  0.77142395    -0.23390
C855        C  0.21550049  0.95102943  0.80552087     0.19630
C856        C  0.19343717  0.93197300  0.82487908     0.24660
C857        C  0.17767517  0.90358259  0.81083462    -0.23330
C858        C  0.18241254  0.89597721  0.77633147     0.19560
F859        F  0.16857924  0.86800416  0.76214512    -0.13290
F860        F  0.20874208  0.90712675  0.72381747    -0.15650
F861        F  0.18858509  0.94036577  0.85784508    -0.15650
F862        F  0.23138805  0.97747835  0.82035861    -0.13290
C863        C  0.07262169  0.17201241  0.79413348     0.24720
C864        C  0.09783536  0.18585416  0.81492715    -0.23390
C865        C  0.10762082  0.21971494  0.81030063     0.19630
C866        C  0.09079720  0.24004265  0.78727492     0.24660
C867        C  0.06553096  0.22632203  0.76695676    -0.23330
C868        C  0.05679138  0.19214768  0.76984752     0.19560
F869        F  0.03186578  0.17883935  0.75033253    -0.13290
F870        F  0.06354834  0.13915273  0.79730530    -0.15650
F871        F  0.09939526  0.27309426  0.78445050    -0.15650
F872        F  0.13477535  0.23270641  0.82657765    -0.13290
C873        C  0.75544564  0.21152407  0.91145826     0.24720
C874        C  0.77016079  0.22756119  0.93948441    -0.23390
C875        C  0.80434481  0.22171996  0.94734647     0.19630
C876        C  0.82357987  0.20029793  0.92741342     0.24660
C877        C  0.80925152  0.18508781  0.89879547    -0.23330
C878        C  0.77498601  0.19074748  0.89093814     0.19560
F879        F  0.76089096  0.17785122  0.86237116    -0.13290
F880        F  0.72261619  0.21713194  0.90304010    -0.15650
F881        F  0.85650603  0.19494929  0.93562676    -0.15650
F882        F  0.81925485  0.23656513  0.97444838    -0.13290
C883        C  0.90202686  0.23863933  0.77381132     0.24720
C884        C  0.93713300  0.23599116  0.77566721    -0.23390
C885        C  0.95263430  0.21296654  0.79780589     0.19630
C886        C  0.93292616  0.19194339  0.81769625     0.24660
C887        C  0.89781970  0.19408464  0.81536313    -0.23330
C888        C  0.88229494  0.21754926  0.79362951     0.19560
F889        F  0.84810312  0.21921391  0.79105994    -0.13290
F890        F  0.88709199  0.26053354  0.75194282    -0.15650
F891        F  0.94787369  0.16934274  0.83880493    -0.15650
F892        F  0.98679567  0.21087933  0.79994829    -0.13290
C893        C  0.81222239  0.11221136  0.77456750     0.24720
C894        C  0.81917451  0.10227588  0.80814102    -0.23390
C895        C  0.80432737  0.07308080  0.82125689     0.19630
C896        C  0.78170966  0.05479210  0.80167562     0.24660
C897        C  0.77403982  0.06523135  0.76843125    -0.23330
C898        C  0.79009658  0.09350458  0.75470973     0.19560
F899        F  0.78319933  0.10393229  0.72268208    -0.13290
F900        F  0.82505447  0.14122031  0.76164276    -0.15650
F901        F  0.76753126  0.02671237  0.81525444    -0.15650
F902        F  0.81107562  0.06282998  0.85337743    -0.13290
C903        C  0.75354379  0.90921964  0.78957582     0.24720
C904        C  0.76643027  0.93948220  0.77709992    -0.23390
C905        C  0.79878776  0.95051490  0.78701636     0.19630
C906        C  0.81832669  0.93086155  0.80867713     0.24660
C907        C  0.80584237  0.89995762  0.82024264    -0.23330
C908        C  0.77332374  0.88930812  0.81053786     0.19560
F909        F  0.76160458  0.85842678  0.81907287    -0.13290
F910        F  0.72266427  0.89790739  0.77984027    -0.15650
F911        F  0.84974941  0.94140145  0.81754641    -0.15650
F912        F  0.81150963  0.98024746  0.77572589    -0.13290
C913        C  0.22214913  0.08116254  0.43196167     0.24720
C914        C  0.23135662  0.11528348  0.43106719    -0.23390
C915        C  0.25740203  0.12508198  0.40869358     0.19630
C916        C  0.27344122  0.10145141  0.38737116     0.24660
C917        C  0.26411613  0.06728537  0.38813878    -0.23330
C918        C  0.23821914  0.05752593  0.41077523     0.19560
F919        F  0.22875543  0.02469346  0.41277378    -0.13290
F920        F  0.19867034  0.07039884  0.45446101    -0.15650
F921        F  0.29718550  0.11221959  0.36516154    -0.15650
F922        F  0.26732300  0.15782813  0.40748765    -0.13290
C923        C  0.08438857  0.23875622  0.43630921     0.24720
C924        C  0.11828222  0.23378436  0.42684097    -0.23390
C925        C  0.12897018  0.24573300  0.39506899     0.19630
C926        C  0.10620309  0.26171749  0.37300916     0.24660
C927        C  0.07256295  0.26737504  0.38272839    -0.23330
C928        C  0.06180402  0.25566425  0.41454656     0.19560
F929        F  0.02910875  0.25962238  0.42405575    -0.13290
F930        F  0.07344442  0.22829660  0.46708700    -0.15650
F931        F  0.11697259  0.27164144  0.34198075    -0.15650
F932        F  0.16159163  0.24171665  0.38531851    -0.13290
C933        C  0.11502052  0.22722603  0.60229882     0.24720
C934        C  0.11380229  0.23642896  0.56796125    -0.23390
C935        C  0.09077405  0.26213975  0.55828982     0.19630
C936        C  0.06941044  0.27783553  0.58208376     0.24660
C937        C  0.07057486  0.26855975  0.61632535    -0.23330
C938        C  0.09362201  0.24297889  0.62609378     0.19560
F939        F  0.09541706  0.23321953  0.65898865    -0.13290
F940        F  0.13769090  0.20381040  0.61307663    -0.15650
F941        F  0.04642026  0.30094596  0.57132257    -0.15650
F942        F  0.08843749  0.27170945  0.52537892    -0.13290
C943        C  0.25582275  0.09255221  0.56264527     0.24720
C944        C  0.23374315  0.11849959  0.57299858    -0.23390
C945        C  0.22796876  0.12322017  0.60753382     0.19630
C946        C  0.24325644  0.10195276  0.63137551     0.24660
C947        C  0.26490548  0.07535957  0.62135209    -0.23330
C948        C  0.27116098  0.07103774  0.58657351     0.19560
F949        F  0.29120024  0.04545171  0.57565272    -0.13290
F950        F  0.26281998  0.08834460  0.52929075    -0.15650
F951        F  0.23702499  0.10767980  0.66453646    -0.15650
F952        F  0.20798646  0.14895660  0.61824825    -0.13290
C953        C  0.30105790  0.27860278  0.55632261     0.24720
C954        C  0.26612882  0.27587385  0.56261386    -0.23390
C955        C  0.25123782  0.29629583  0.58741415     0.19630
C956        C  0.27124835  0.31769467  0.60689796     0.24660
C957        C  0.30639875  0.31939426  0.60139512    -0.23330
C958        C  0.32082927  0.30049990  0.57519908     0.19560
F959        F  0.35446309  0.30234448  0.56869484    -0.13290
F960        F  0.31640001  0.25993294  0.53201888    -0.15650
F961        F  0.25637452  0.33499782  0.63243710    -0.15650
F962        F  0.21763120  0.29442763  0.59396082    -0.13290
C963        C  0.32701770  0.28918749  0.42435122     0.24720
C964        C  0.31252440  0.30941845  0.39892623    -0.23390
C965        C  0.27826076  0.30479400  0.39002356     0.19630
C966        C  0.25855429  0.28198611  0.40771609     0.24660
C967        C  0.27315914  0.26208560  0.43295332    -0.23330
C968        C  0.30754541  0.26504007  0.44070613     0.19560
F969        F  0.32175289  0.24581818  0.46536103    -0.13290
F970        F  0.35979991  0.29319050  0.43370690    -0.15650
F971        F  0.22511238  0.27936687  0.40039284    -0.15650
F972        F  0.26389112  0.32160888  0.36370004    -0.13290
C973        C  0.42040443  0.06349251  0.73267564     0.24720
C974        C  0.38555982  0.06980216  0.73526218    -0.23390
C975        C  0.37497329  0.09734007  0.75533332     0.19630
C976        C  0.39863179  0.11844664  0.77175824     0.24660
C977        C  0.43354347  0.11230303  0.76889772    -0.23330
C978        C  0.44404936  0.08464400  0.74891270     0.19560
F979        F  0.47749351  0.07787146  0.74539736    -0.13290
F980        F  0.43155118  0.03609958  0.71533910    -0.15650
F981        F  0.38743136  0.14562967  0.78938960    -0.15650
F982        F  0.34148630  0.10371722  0.75913436    -0.13290
C983        C  0.59484913  0.21694887  0.89830782     0.24720
C984        C  0.56815411  0.23713359  0.88624607    -0.23390
C985        C  0.56684337  0.27119361  0.89761721     0.19630
C986        C  0.59112189  0.28432827  0.92017631     0.24660
C987        C  0.61748973  0.26401903  0.93251634    -0.23330
C988        C  0.61905636  0.23010803  0.92099225     0.19560
F989        F  0.64444018  0.20944035  0.93139300    -0.13290
F990        F  0.59789993  0.18444222  0.88793488    -0.15650
F991        F  0.58806102  0.31676957  0.93076287    -0.15650
F992        F  0.54163440  0.29213759  0.88736530    -0.13290
C993        C  0.59157895  0.06295293  0.75701325     0.24720
C994        C  0.61782015  0.07340348  0.73547470    -0.23390
C995        C  0.62314747  0.10799773  0.73065465     0.19630
C996        C  0.60194388  0.13178083  0.74618131     0.24660
C997        C  0.57517791  0.12145912  0.76739981    -0.23330
C998        C  0.57036696  0.08668856  0.77273180     0.19560
F999        F  0.54450936  0.07557767  0.79225267    -0.13290
F1000       F  0.58692571  0.02962021  0.76333322    -0.15650
F1001       F  0.60781522  0.16507070  0.74065900    -0.15650
F1002       F  0.64940726  0.11876654  0.71148001    -0.13290
C1003       C  0.43790051  0.25759141  0.90797763     0.24720
C1004       C  0.42749939  0.23422731  0.88322069    -0.23390
C1005       C  0.39297580  0.22800792  0.87896797     0.19630
C1006       C  0.36920276  0.24407108  0.89969191     0.24660
C1007       C  0.37942503  0.26713546  0.92509248    -0.23330
C1008       C  0.41415176  0.27378944  0.92884596     0.19560
F1009       F  0.42525138  0.29515837  0.95329153    -0.13290
F1010       F  0.47115757  0.26519405  0.91147664    -0.15650
F1011       F  0.33598721  0.23705094  0.89473348    -0.15650
F1012       F  0.38221616  0.20686264  0.85416464    -0.13290
C1013       C  0.58379589  0.29767291  0.74827147     0.24720
C1014       C  0.55930703  0.27700460  0.73311429    -0.23390
C1015       C  0.55353975  0.27930704  0.69800912     0.19630
C1016       C  0.57251455  0.30114389  0.67834759     0.24660
C1017       C  0.59865033  0.32004507  0.69302662    -0.23330
C1018       C  0.60376007  0.31858932  0.72833916     0.19560
F1019       F  0.62950865  0.33547004  0.74346130    -0.13290
F1020       F  0.58965545  0.29646028  0.78213184    -0.15650
F1021       F  0.56612982  0.30287415  0.64458966    -0.15650
F1022       F  0.52969944  0.26023960  0.68239742    -0.13290
C1023       C  0.40169008  0.27584494  0.74326106     0.24720
C1024       C  0.42807402  0.25796129  0.72811223    -0.23390
C1025       C  0.43530802  0.26234510  0.69371519     0.19630
C1026       C  0.41711584  0.28580775  0.67479753     0.24660
C1027       C  0.39109796  0.30441837  0.69008714    -0.23330
C1028       C  0.38280219  0.29850862  0.72421439     0.19560
F1029       F  0.35633035  0.31449881  0.73907451    -0.13290
F1030       F  0.39479036  0.27180877  0.77667325    -0.15650
F1031       F  0.42562007  0.29125304  0.64198272    -0.15650
F1032       F  0.46140941  0.24557657  0.67913062    -0.13290
C1033       C  0.78436173  0.59376061  0.90277986     0.24720
C1034       C  0.76379459  0.56830684  0.88901568    -0.23390
C1035       C  0.72927702  0.56773425  0.89922813     0.19630
C1036       C  0.71606577  0.59155457  0.92208120     0.24660
C1037       C  0.73671038  0.61659035  0.93611507    -0.23330
C1038       C  0.77110210  0.61741177  0.92600232     0.19560
F1039       F  0.79204854  0.64163116  0.93822740    -0.13290
F1040       F  0.81728646  0.59609532  0.89360830    -0.15650
F1041       F  0.68314748  0.58928989  0.93133860    -0.15650
F1042       F  0.70781440  0.54374407  0.88744955    -0.13290
C1043       C  0.87789388  0.58575495  0.73130409     0.24720
C1044       C  0.87925556  0.57405107  0.76534604    -0.23390
C1045       C  0.90583165  0.58564511  0.78593486     0.19630
C1046       C  0.92970875  0.60860333  0.77320934     0.24660
C1047       C  0.92807797  0.62015840  0.73938149    -0.23330
C1048       C  0.90212320  0.60820164  0.71856460     0.19560
F1049       F  0.89951796  0.61908926  0.68608232    -0.13290
F1050       F  0.85320075  0.57535961  0.70980634    -0.15650
F1051       F  0.95498580  0.61914350  0.79393987    -0.15650
F1052       F  0.90878318  0.57492312  0.81843049    -0.13290
C1053       C  0.92452487  0.41577390  0.72086911     0.24720
C1054       C  0.93015607  0.38453816  0.73653462    -0.23390
C1055       C  0.91338686  0.37810282  0.76753217     0.19630
C1056       C  0.89139535  0.40210094  0.78221306     0.24660
C1057       C  0.88573244  0.43346039  0.76653324    -0.23330
C1058       C  0.90291091  0.43989587  0.73565171     0.19560
F1059       F  0.89932970  0.47009811  0.71979868    -0.13290
F1060       F  0.94116175  0.42365955  0.69195058    -0.15650
F1061       F  0.87496580  0.39419145  0.81123895    -0.15650
F1062       F  0.91800318  0.34812786  0.78354361    -0.13290
C1063       C  0.77883108  0.42108349  0.91169454     0.24720
C1064       C  0.76219670  0.42653459  0.88064379    -0.23390
C1065       C  0.73148509  0.40887539  0.87467954     0.19630
C1066       C  0.71782760  0.38710870  0.89910851     0.24660
C1067       C  0.73460577  0.38180041  0.92981156    -0.23330
C1068       C  0.76541022  0.39867739  0.93571178     0.19560
F1069       F  0.78261997  0.39342205  0.96500731    -0.13290
F1070       F  0.80792622  0.43760322  0.91910677    -0.15650
F1071       F  0.68883886  0.37018273  0.89218042    -0.15650
F1072       F  0.71443482  0.41235343  0.84501610    -0.13290
C1073       C  0.71092531  0.59597425  0.74818485     0.24720
C1074       C  0.72409564  0.56568692  0.73563218    -0.23390
C1075       C  0.71519248  0.55450508  0.70298251     0.19630
C1076       C  0.69365087  0.57355212  0.68301184     0.24660
C1077       C  0.68133674  0.60438197  0.69497341    -0.23330
C1078       C  0.68998351  0.61557461  0.72772162     0.19560
F1079       F  0.67980558  0.64626840  0.73912635    -0.13290
F1080       F  0.71971716  0.60735770  0.77939996    -0.15650
F1081       F  0.68537370  0.56228373  0.65160351    -0.15650
F1082       F  0.72730321  0.52503254  0.69026904    -0.13290
C1083       C  0.69929840  0.45074378  0.71591400     0.24720
C1084       C  0.73145902  0.43898546  0.72583668    -0.23390
C1085       C  0.74361982  0.40821312  0.71367326     0.19630
C1086       C  0.72339171  0.38875334  0.69263705     0.24660
C1087       C  0.69111368  0.40036670  0.68283409    -0.23330
C1088       C  0.67938796  0.43163125  0.69425109     0.19560
F1089       F  0.64841359  0.44324092  0.68497424    -0.13290
F1090       F  0.68705873  0.48071483  0.72723445    -0.15650
F1091       F  0.73455304  0.35765225  0.68360414    -0.15650
F1092       F  0.77417887  0.39612282  0.72370723    -0.13290
C1093       C  0.59166709  0.78565103  0.90225734     0.24720
C1094       C  0.57173499  0.76339999  0.88316991    -0.23390
C1095       C  0.57623268  0.72824365  0.88827070     0.19630
C1096       C  0.60022488  0.71582188  0.91139197     0.24660
C1097       C  0.62077723  0.73804437  0.92977029    -0.23330
C1098       C  0.61600206  0.77319194  0.92505583     0.19560
F1099       F  0.63444523  0.79577061  0.94313362    -0.13290
F1100       F  0.58810443  0.81951303  0.89846625    -0.15650
F1101       F  0.60372674  0.68196220  0.91528531    -0.15650
F1102       F  0.55693318  0.70557531  0.87123397    -0.13290
C1103       C  0.60367593  0.88004013  0.76679687     0.24720
C1104       C  0.56926279  0.88841272  0.77019740    -0.23390
C1105       C  0.55774226  0.91846889  0.75482450     0.19630
C1106       C  0.58007008  0.93996886  0.73736358     0.24660
C1107       C  0.61444462  0.93162564  0.73390313    -0.23330
C1108       C  0.62600775  0.90152378  0.74915008     0.19560
F1109       F  0.65914753  0.89300648  0.74706660    -0.13290
F1110       F  0.61544797  0.85044117  0.77951491    -0.15650
F1111       F  0.56817839  0.96937030  0.72431021    -0.15650
F1112       F  0.52451739  0.92687198  0.75649839    -0.13290
C1113       C  0.42315669  0.78356791  0.91672471     0.24720
C1114       C  0.42846441  0.76767659  0.88547931    -0.23390
C1115       C  0.41124455  0.73689702  0.87932136     0.19630
C1116       C  0.38970637  0.72236965  0.90370202     0.24660
C1117       C  0.38464547  0.73802891  0.93519341    -0.23330
C1118       C  0.40176038  0.76901525  0.94119892     0.19560
F1119       F  0.39842909  0.78520222  0.97128909    -0.13290
F1120       F  0.43989950  0.81245804  0.92431035    -0.15650
F1121       F  0.37324124  0.69333446  0.89606610    -0.15650
F1122       F  0.41510549  0.72076003  0.84927739    -0.13290
C1123       C  0.40337225  0.89585286  0.78743749     0.24720
C1124       C  0.42882549  0.88361257  0.76620689    -0.23390
C1125       C  0.42949860  0.89468838  0.73221206     0.19630
C1126       C  0.40500320  0.91711943  0.71960777     0.24660
C1127       C  0.37880053  0.92880839  0.74052457    -0.23330
C1128       C  0.37853612  0.91792882  0.77481387     0.19560
F1129       F  0.35438782  0.92883300  0.79658048    -0.13290
F1130       F  0.40183759  0.88558665  0.82017121    -0.15650
F1131       F  0.40696284  0.92717973  0.68683767    -0.15650
F1132       F  0.45437126  0.88407312  0.71110804    -0.13290
C1133       C  0.44434232  0.72693748  0.69499433     0.24720
C1134       C  0.44079797  0.72595550  0.73048088    -0.23390
C1135       C  0.42309159  0.69917385  0.74523666     0.19630
C1136       C  0.40642514  0.67587210  0.72504757     0.24660
C1137       C  0.40721973  0.67861705  0.68940048    -0.23330
C1138       C  0.42856573  0.70290092  0.67481475     0.19560
F1139       F  0.43317611  0.70425571  0.64078802    -0.13290
F1140       F  0.46276596  0.75130299  0.67949272    -0.15650
F1141       F  0.38819877  0.65193559  0.74108572    -0.15650
F1142       F  0.42103062  0.69573737  0.77935984    -0.13290
C1143       C  0.58657960  0.74858884  0.70424507     0.24720
C1144       C  0.56203917  0.73459062  0.72549002    -0.23390
C1145       C  0.55360688  0.70014457  0.72223084     0.19630
C1146       C  0.57053224  0.67987934  0.69931524     0.24660
C1147       C  0.59698805  0.69317631  0.68008149    -0.23330
C1148       C  0.60435759  0.72794550  0.68204046     0.19560
F1149       F  0.63030113  0.74166290  0.66439233    -0.13290
F1150       F  0.59443224  0.78188396  0.70592671    -0.15650
F1151       F  0.56209367  0.64673709  0.69703717    -0.15650
F1152       F  0.52899726  0.68572338  0.74124639    -0.13290
C1153       C  0.10756218  0.37347802  0.73661727     0.24720
C1154       C  0.07322850  0.38217204  0.73440243    -0.23390
C1155       C  0.06241135  0.41276593  0.74896389     0.19630
C1156       C  0.08563240  0.43447282  0.76499711     0.24660
C1157       C  0.12019430  0.42608818  0.76655883    -0.23330
C1158       C  0.13084402  0.39539429  0.75195727     0.19560
F1159       F  0.16394128  0.38642849  0.75284967    -0.13290
F1160       F  0.11851558  0.34350697  0.72408314    -0.15650
F1161       F  0.07451158  0.46420157  0.77794418    -0.15650
F1162       F  0.02912935  0.42111695  0.74855787    -0.13290
C1163       C  0.08681850  0.57478944  0.78073738     0.24720
C1164       C  0.11705364  0.56812783  0.76362337    -0.23390
C1165       C  0.12216896  0.58388698  0.73184878     0.19630
C1166       C  0.09786168  0.60602814  0.71785080     0.24660
C1167       C  0.06755948  0.61279202  0.73504955    -0.23330
C1168       C  0.06236997  0.59646659  0.76663024     0.19560
F1169       F  0.03314710  0.60108816  0.78396645    -0.13290
F1170       F  0.08024514  0.55925381  0.81061335    -0.15650
F1171       F  0.10452933  0.62162292  0.68804054    -0.15650
F1172       F  0.15123025  0.57835927  0.71452474    -0.13290
C1173       C  0.27095516  0.58070779  0.88446180     0.24720
C1174       C  0.23579664  0.57424680  0.88154284    -0.23390
C1175       C  0.21379415  0.59153961  0.90329285     0.19630
C1176       C  0.22640091  0.61545193  0.92639259     0.24660
C1177       C  0.26145072  0.62227945  0.92875317    -0.23330
C1178       C  0.28353054  0.60417822  0.90788770     0.19560
F1179       F  0.31732638  0.60973703  0.90955926    -0.13370
F1180       F  0.29356955  0.56385072  0.86493987    -0.15650
F1181       F  0.20420922  0.63147440  0.94706137    -0.15650
F1182       F  0.18002810  0.58580962  0.90184806    -0.13290
C1183       C  0.23536541  0.39898600  0.87915237     0.24720
C1184       C  0.23313336  0.43331730  0.88799601    -0.23390
C1185       C  0.24869473  0.44390055  0.91833767     0.19630
C1186       C  0.26541730  0.42070396  0.93963548     0.24660
C1187       C  0.26781223  0.38643199  0.93074399    -0.23330
C1188       C  0.25222065  0.37578041  0.90044112     0.19560
F1189       F  0.25320067  0.34270347  0.89156233    -0.13290
F1190       F  0.22229051  0.38812458  0.84929557    -0.15650
F1191       F  0.27833693  0.43154277  0.96957149    -0.15650
F1192       F  0.24755617  0.47692321  0.92741318    -0.13290
C1193       C  0.26554386  0.40279806  0.72861388     0.24720
C1194       C  0.27772217  0.43322595  0.74131010    -0.23390
C1195       C  0.30922989  0.44575017  0.73108859     0.19630
C1196       C  0.32822108  0.42802662  0.70731491     0.24660
C1197       C  0.31547143  0.39799315  0.69375975    -0.23330
C1198       C  0.28460632  0.38489326  0.70540814     0.19560
F1199       F  0.27323456  0.35442143  0.69472295    -0.13290
F1200       F  0.23486940  0.39092347  0.73815847    -0.15650
F1201       F  0.35847805  0.44032791  0.69702305    -0.15650
F1202       F  0.32057978  0.47590659  0.74276779    -0.13290
C1203       C  0.28810922  0.58754053  0.74250085     0.24720
C1204       C  0.26732487  0.56360020  0.72707885    -0.23390
C1205       C  0.26906920  0.55800457  0.69210173     0.19630
C1206       C  0.29214256  0.57606666  0.67266241     0.24660
C1207       C  0.31308989  0.60017615  0.68812183    -0.23330
C1208       C  0.31026835  0.60625543  0.72307607     0.19560
F1209       F  0.32743424  0.63165358  0.73821310    -0.13290
F1210       F  0.28646251  0.59316534  0.77638305    -0.15650
F1211       F  0.29395070  0.57026714  0.63885230    -0.15650
F1212       F  0.24944730  0.53419652  0.67714007    -0.13290
C1213       C  0.11324879  0.42627875  0.27508608     0.24720
C1214       C  0.11587055  0.43273098  0.23976220    -0.23390
C1215       C  0.09430155  0.41473645  0.21812805     0.19630
C1216       C  0.07039253  0.39190729  0.23119263     0.24660
C1217       C  0.06711923  0.38603592  0.26662821    -0.23330
C1218       C  0.08936128  0.40338203  0.28819920     0.19560
F1219       F  0.08798247  0.39846446  0.32215570    -0.13290
F1220       F  0.13412075  0.44198582  0.29736586    -0.15650
F1221       F  0.05036389  0.37554808  0.20860984    -0.15650
F1222       F  0.09569910  0.41969965  0.18417305    -0.13290
C1223       C  0.22857018  0.39021119  0.07451430     0.24720
C1224       C  0.26357264  0.38282614  0.07242167    -0.23390
C1225       C  0.28551665  0.39908022  0.09498265     0.19630
C1226       C  0.27282841  0.42131190  0.11960266     0.24660
C1227       C  0.23770779  0.42828944  0.12211903    -0.23330
C1228       C  0.21589671  0.41275638  0.09884362     0.19560
F1229       F  0.18216612  0.41890339  0.09988683    -0.13290
F1230       F  0.20638073  0.37590734  0.05254543    -0.15650
F1231       F  0.29529740  0.43644413  0.14069808    -0.15650
F1232       F  0.31922407  0.39282568  0.09385546    -0.13290
C1233       C  0.22927177  0.60347433  0.06790390     0.24720
C1234       C  0.26351772  0.61451852  0.06914347    -0.23390
C1235       C  0.28357940  0.60253869  0.09597722     0.19630
C1236       C  0.27016003  0.58027710  0.12035872     0.24660
C1237       C  0.23606767  0.56910979  0.11887765    -0.23330
C1238       C  0.21586625  0.58139256  0.09239607     0.19560
F1239       F  0.18326525  0.57122915  0.08945177    -0.13290
F1240       F  0.20833425  0.61368718  0.04260964    -0.15650
F1241       F  0.29075631  0.56997440  0.14589605    -0.15650
F1242       F  0.31617490  0.61266676  0.09904866    -0.13290
C1243       C  0.06566842  0.58588505  0.26367550     0.24720
C1244       C  0.07503188  0.61947790  0.27043291    -0.23390
C1245       C  0.10730706  0.63037811  0.26033692     0.19630
C1246       C  0.12998437  0.60806851  0.24462837     0.24660
C1247       C  0.12045808  0.57469887  0.23726408    -0.23330
C1248       C  0.08807551  0.56378454  0.24703169     0.19560
F1249       F  0.07858801  0.53134468  0.24150620    -0.13290
F1250       F  0.03435348  0.57482827  0.27205188    -0.15650
F1251       F  0.16137430  0.61909219  0.23646953    -0.15650
F1252       F  0.11689093  0.66280887  0.26576415    -0.13290
C1253       C  0.28571562  0.59560424  0.25853172     0.24720
C1254       C  0.27787990  0.56304450  0.26926990    -0.23390
C1255       C  0.29214708  0.54992856  0.29911324     0.19630
C1256       C  0.31347124  0.56977160  0.31872324     0.24660
C1257       C  0.32049304  0.60279865  0.30858849    -0.23330
C1258       C  0.30646872  0.61564766  0.27842704     0.19560
F1259       F  0.31065122  0.64839554  0.26960160    -0.13290
F1260       F  0.27152818  0.60866069  0.23004600    -0.15650
F1261       F  0.32641405  0.55726122  0.34801404    -0.15650
F1262       F  0.28536169  0.51795280  0.30921096    -0.13290
C1263       C  0.28376326  0.40943058  0.26329113     0.24720
C1264       C  0.26296417  0.43355849  0.27837884    -0.23390
C1265       C  0.26548096  0.44017196  0.31309722     0.19630
C1266       C  0.29003612  0.42381795  0.33241750     0.24660
C1267       C  0.31107734  0.39935659  0.31745374    -0.23330
C1268       C  0.30695253  0.39170976  0.28274938     0.19560
F1269       F  0.32447490  0.36639178  0.26762919    -0.13290
F1270       F  0.28161880  0.40316169  0.22954274    -0.15650
F1271       F  0.29354137  0.43220822  0.36555308    -0.15650
F1272       F  0.24548628  0.46383916  0.32781363    -0.13290
C1273       C  0.41178227  0.74612285  0.06545952     0.24720
C1274       C  0.38091869  0.73250222  0.07659083    -0.23390
C1275       C  0.37187243  0.73656135  0.11068278     0.19630
C1276       C  0.39362263  0.75290042  0.13344602     0.24660
C1277       C  0.42456098  0.76653060  0.12249219    -0.23330
C1278       C  0.43336511  0.76307930  0.08816474     0.19560
F1279       F  0.46330721  0.77522963  0.07682084    -0.13290
F1280       F  0.42039843  0.74414300  0.03229016    -0.15650
F1281       F  0.38414823  0.75594282  0.16625544    -0.15650
F1282       F  0.34159416  0.72505390  0.12182945    -0.13290
C1283       C  0.59997781  0.77040014  0.06577328     0.24720
C1284       C  0.61314188  0.73711800  0.06906392    -0.23390
C1285       C  0.60252161  0.71798302  0.09700957     0.19630
C1286       C  0.57965930  0.73154421  0.12073519     0.24660
C1287       C  0.56676176  0.76482160  0.11744903    -0.23330
C1288       C  0.57743389  0.78400476  0.08967752     0.19560
F1289       F  0.56516486  0.81566397  0.08490811    -0.13290
F1290       F  0.60847735  0.79003453  0.03896667    -0.15650
F1291       F  0.57058617  0.71207108  0.14745806    -0.15650
F1292       F  0.61475388  0.68633590  0.10190522    -0.13290
C1293       C  0.60760191  0.87201273  0.24264185     0.24720
C1294       C  0.57502076  0.88199612  0.23238591    -0.23390
C1295       C  0.56414618  0.91504553  0.23965363     0.19630
C1296       C  0.58551225  0.93761719  0.25687739     0.24660
C1297       C  0.61815948  0.92759037  0.26685669    -0.23330
C1298       C  0.62914940  0.89476037  0.25909138     0.19560
F1299       F  0.66096945  0.88480975  0.26734298    -0.13290
F1300       F  0.61853892  0.84006668  0.23670326    -0.15650
F1301       F  0.57479679  0.96964170  0.26274892    -0.15650
F1302       F  0.53237062  0.92502490  0.23128600    -0.13290
C1303       C  0.41549125  0.92656815  0.28314446     0.24720
C1304       C  0.38358290  0.93013772  0.26811270    -0.23390
C1305       C  0.37700798  0.91198924  0.23792707     0.19630
C1306       C  0.40170834  0.89106660  0.22308624     0.24660
C1307       C  0.43391814  0.88779399  0.23780804    -0.23330
C1308       C  0.44032899  0.90589837  0.26821987     0.19560
F1309       F  0.47111202  0.90429607  0.28339114    -0.13290
F1310       F  0.42330720  0.94445030  0.31138707    -0.15650
F1311       F  0.39376774  0.87353188  0.19466259    -0.15650
F1312       F  0.34632428  0.91450094  0.22266552    -0.13290
C1313       C  0.55624302  0.72199024  0.30315259     0.24720
C1314       C  0.56301249  0.72533941  0.26836408    -0.23390
C1315       C  0.58884603  0.70610227  0.25356352     0.19630
C1316       C  0.60869478  0.68499641  0.27371307     0.24660
C1317       C  0.60227124  0.68247046  0.30864762    -0.23330
C1318       C  0.57549571  0.70052044  0.32297622     0.19560
F1319       F  0.56853796  0.69796969  0.35653043    -0.13290
F1320       F  0.53090695  0.73948834  0.31821073    -0.15650
F1321       F  0.63527401  0.66864879  0.25947403    -0.15650
F1322       F  0.59588133  0.70888921  0.22007167    -0.13290
C1323       C  0.38543823  0.70665517  0.28141598     0.24720
C1324       C  0.39351206  0.69990958  0.31544905    -0.23390
C1325       C  0.41966878  0.71787470  0.33133130     0.19630
C1326       C  0.43851085  0.74107535  0.31278842     0.24660
C1327       C  0.43163133  0.74574294  0.27829048    -0.23330
C1328       C  0.40479514  0.72893774  0.26287653     0.19560
F1329       F  0.39804564  0.73337683  0.22949112    -0.13290
F1330       F  0.35886449  0.69166429  0.26590973    -0.15650
F1331       F  0.46475712  0.75723384  0.32779864    -0.15650
F1332       F  0.42779356  0.71189562  0.36419543    -0.13290
C1333       C  0.74385747  0.40432827  0.12841344     0.24720
C1334       C  0.76551100  0.43058776  0.11792602    -0.23390
C1335       C  0.76975798  0.43584030  0.08308825     0.19630
C1336       C  0.75334698  0.41499275  0.05936230     0.24660
C1337       C  0.73191871  0.38846399  0.06976535    -0.23330
C1338       C  0.72743565  0.38336730  0.10466640     0.19560
F1339       F  0.70827085  0.35729869  0.11581694    -0.13290
F1340       F  0.73870117  0.39893838  0.16189503    -0.15650
F1341       F  0.75815490  0.42095427  0.02590913    -0.15650
F1342       F  0.78883232  0.46198829  0.07197498    -0.13290
C1343       C  0.76105766  0.56680761  0.08922259     0.24720
C1344       C  0.76218522  0.57393624  0.12407458    -0.23390
C1345       C  0.74752293  0.60417463  0.13578938     0.19630
C1346       C  0.73266397  0.62707856  0.11308619     0.24660
C1347       C  0.73087019  0.61960091  0.07840215    -0.23330
C1348       C  0.74533446  0.58934453  0.06662527     0.19560
F1349       F  0.74523167  0.58218970  0.03301911    -0.13290
F1350       F  0.77414466  0.53749334  0.07720834    -0.15650
F1351       F  0.72012790  0.65671239  0.12491977    -0.15650
F1352       F  0.74789528  0.61166163  0.16932078    -0.13290
C1353       C  0.87406555  0.59356024  0.26321696     0.24720
C1354       C  0.88211695  0.57202591  0.23580319    -0.23390
C1355       C  0.91561696  0.57150094  0.22435688     0.19630
C1356       C  0.94038841  0.59181367  0.23988946     0.24660
C1357       C  0.93241779  0.61335864  0.26742917    -0.23330
C1358       C  0.89878263  0.61403409  0.27869625     0.19560
F1359       F  0.88952435  0.63524922  0.30400615    -0.13290
F1360       F  0.84194837  0.59475492  0.27510319    -0.15650
F1361       F  0.97258711  0.58983662  0.22828772    -0.15650
F1362       F  0.92482379  0.54999929  0.19927076    -0.13290
C1363       C  0.92399047  0.41405843  0.27969592     0.24720
C1364       C  0.92369481  0.38064915  0.26757688    -0.23390
C1365       C  0.90094166  0.37248019  0.24103032     0.19630
C1366       C  0.87965324  0.39705592  0.22682366     0.24660
C1367       C  0.88030658  0.43023163  0.23884637    -0.23330
C1368       C  0.90233359  0.43845959  0.26562769     0.19560
F1369       F  0.90286989  0.47036880  0.27814043    -0.13290
F1370       F  0.94574702  0.42342507  0.30457512    -0.15650
F1371       F  0.85756039  0.38817241  0.20205331    -0.15650
F1372       F  0.89896595  0.34051390  0.22882734    -0.13290
C1373       C  0.70291720  0.41211214  0.25650797     0.24720
C1374       C  0.72411659  0.43641449  0.27110495    -0.23390
C1375       C  0.72106168  0.44386692  0.30588792     0.19630
C1376       C  0.69793067  0.42668448  0.32571582     0.24660
C1377       C  0.67802637  0.40112517  0.31153840    -0.23330
C1378       C  0.68039474  0.39424005  0.27660678     0.19560
F1379       F  0.66244135  0.36893835  0.26206478    -0.13290
F1380       F  0.70455973  0.40487354  0.22299314    -0.15650
F1381       F  0.69559019  0.43443385  0.35911957    -0.15650
F1382       F  0.74011277  0.46811784  0.32091776    -0.13290
C1383       C  0.73877756  0.59050184  0.29264518     0.24720
C1384       C  0.72742705  0.56003355  0.27915129    -0.23390
C1385       C  0.69570189  0.54701783  0.28863560     0.19630
C1386       C  0.67533993  0.56481031  0.31108925     0.24660
C1387       C  0.68644987  0.59570544  0.32399016    -0.23330
C1388       C  0.71808860  0.60862365  0.31424052     0.19560
F1389       F  0.72767429  0.64023529  0.32302957    -0.13290
F1390       F  0.76891103  0.60379275  0.28322745    -0.15650
F1391       F  0.64435078  0.55267237  0.31920345    -0.15650
F1392       F  0.68441427  0.51714124  0.27617344    -0.13290
C1393       C  0.42994452  0.22304847  0.08349539     0.24720
C1394       C  0.42967104  0.23427319  0.11713740    -0.23390
C1395       C  0.40821959  0.26160334  0.12553402     0.19630
C1396       C  0.38738495  0.27710744  0.10099359     0.24660
C1397       C  0.38770395  0.26597401  0.06720852    -0.23330
C1398       C  0.40935091  0.23864323  0.05889153     0.19560
F1399       F  0.41117713  0.22733323  0.02650771    -0.13290
F1400       F  0.45143648  0.19806897  0.07401644    -0.15650
F1401       F  0.36621668  0.30232749  0.11055531    -0.15650
F1402       F  0.40742902  0.27332793  0.15780952    -0.13290
C1403       C  0.41875884  0.09141845  0.22085114     0.24720
C1404       C  0.42616900  0.12094995  0.23913618    -0.23390
C1405       C  0.41112831  0.12491432  0.27159283     0.19630
C1406       C  0.38948462  0.10031287  0.28498968     0.24660
C1407       C  0.38176082  0.07138660  0.26634211    -0.23330
C1408       C  0.39660815  0.06715597  0.23416461     0.19560
F1409       F  0.38972348  0.03917138  0.21557163    -0.13290
F1410       F  0.43283097  0.08589736  0.19005896    -0.15650
F1411       F  0.37498310  0.10546539  0.31565895    -0.15650
F1412       F  0.41719529  0.15268942  0.29076677    -0.13290
C1413       C  0.55661240  0.08927620  0.25956171     0.24720
C1414       C  0.56678300  0.11493356  0.23691648    -0.23390
C1415       C  0.60150666  0.11822320  0.23016350     0.19630
C1416       C  0.62527921  0.09629927  0.24542078     0.24660
C1417       C  0.61504446  0.07078914  0.26815227    -0.23330
C1418       C  0.58036697  0.06743288  0.27479791     0.19560
F1419       F  0.56931234  0.04209149  0.29501527    -0.13290
F1420       F  0.52332402  0.08496164  0.26651247    -0.15650
F1421       F  0.65855145  0.10009685  0.23813466    -0.15650
F1422       F  0.61257434  0.14343166  0.20978928    -0.13290
C1423       C  0.59325070  0.28318802  0.08617537     0.24720
C1424       C  0.61995458  0.26272045  0.07482612    -0.23390
C1425       C  0.62123716  0.22874563  0.08639058     0.19630
C1426       C  0.59684896  0.21599313  0.10871399     0.24660
C1427       C  0.57086556  0.23678125  0.12055395    -0.23330
C1428       C  0.56922712  0.27046313  0.10892775     0.19560
F1429       F  0.54390064  0.29111580  0.11937225    -0.13290
F1430       F  0.59041647  0.31563953  0.07555194    -0.15650
F1431       F  0.59937453  0.18362314  0.11968940    -0.15650
F1432       F  0.64602227  0.20742196  0.07601576    -0.13290
C1433       C  0.38560440  0.28275400  0.30299876     0.24720
C1434       C  0.39736061  0.31493867  0.31275780    -0.23390
C1435       C  0.42681441  0.32802395  0.29816945     0.19630
C1436       C  0.44489601  0.30867372  0.27501147     0.24660
C1437       C  0.43375328  0.27615252  0.26673120    -0.23330
C1438       C  0.40417268  0.26324222  0.28061986     0.19560
F1439       F  0.39353563  0.23164356  0.27267697    -0.13290
F1440       F  0.35587416  0.27035733  0.31470333    -0.15650
F1441       F  0.47407151  0.32091259  0.26187099    -0.15650
F1442       F  0.43836686  0.35905067  0.30694525    -0.13290
C1443       C  0.59568238  0.27333458  0.27077592     0.24720
C1444       C  0.56203660  0.26626432  0.27815730    -0.23390
C1445       C  0.54575530  0.28187787  0.30554974     0.19630
C1446       C  0.56318585  0.30499829  0.32547682     0.24660
C1447       C  0.59669855  0.31259748  0.31769960    -0.23330
C1448       C  0.61313688  0.29627995  0.29071236     0.19560
F1449       F  0.64616047  0.30251333  0.28394470    -0.13290
F1450       F  0.61120121  0.25863873  0.24392599    -0.15650
F1451       F  0.54745332  0.32025181  0.35186246    -0.15650
F1452       F  0.51280065  0.27533192  0.31230170    -0.13290
C1453       C  0.91297039  0.78209863  0.57814617     0.24720
C1454       C  0.88140902  0.76666799  0.57405498    -0.23390
C1455       C  0.87515505  0.73642689  0.59211413     0.19630
C1456       C  0.89987905  0.72188982  0.61336066     0.24660
C1457       C  0.93171008  0.73705953  0.61715788    -0.23330
C1458       C  0.93775590  0.76755592  0.59924764     0.19560
F1459       F  0.96813751  0.78323549  0.60153633    -0.13290
F1460       F  0.92051869  0.81042743  0.56042941    -0.15650
F1461       F  0.89227966  0.69341963  0.63081907    -0.15650
F1462       F  0.84475210  0.72086057  0.58928739    -0.13290
C1463       C  0.78066932  0.90926574  0.58328832     0.24720
C1464       C  0.76207276  0.87992684  0.57596867    -0.23390
C1465       C  0.73008116  0.87595575  0.59178066     0.19630
C1466       C  0.71717984  0.90062777  0.61368753     0.24660
C1467       C  0.73597780  0.92951175  0.62103143    -0.23330
C1468       C  0.76792080  0.93351745  0.60584345     0.19560
F1469       F  0.78670651  0.96134890  0.61257565    -0.13290
F1470       F  0.81109752  0.91473600  0.56854529    -0.15650
F1471       F  0.68676829  0.89568597  0.62867957    -0.15650
F1472       F  0.71087022  0.84816123  0.58615950    -0.13290
C1473       C  0.76835747  0.88136833  0.39944197     0.24720
C1474       C  0.76493313  0.88686928  0.43441473    -0.23390
C1475       C  0.74410376  0.91380331  0.44518196     0.19630
C1476       C  0.72743982  0.93482922  0.42170140     0.24660
C1477       C  0.73059707  0.92916799  0.38678173    -0.23330
C1478       C  0.75160593  0.90242499  0.37593755     0.19560
F1479       F  0.75604286  0.89683773  0.34234149    -0.13290
F1480       F  0.78687110  0.85486884  0.38802653    -0.15650
F1481       F  0.70932237  0.96161882  0.43308349    -0.15650
F1482       F  0.74012945  0.91994265  0.47874623    -0.13290
C1483       C  0.92317068  0.77114896  0.38923452     0.24720
C1484       C  0.92709611  0.73596485  0.38402818    -0.23390
C1485       C  0.90781382  0.71389798  0.40376019     0.19630
C1486       C  0.88439381  0.72655438  0.42720982     0.24660
C1487       C  0.87988167  0.76178724  0.43192315    -0.23330
C1488       C  0.90005078  0.78383381  0.41299138     0.19560
F1489       F  0.89696356  0.81772781  0.41688852    -0.13290
F1490       F  0.94220174  0.79352864  0.37162867    -0.15650
F1491       F  0.86638450  0.70402142  0.44567815    -0.15650
F1492       F  0.91096116  0.68001560  0.39980171    -0.13290
C1493       C  0.67117837  0.71566324  0.41850116     0.24720
C1494       C  0.68622335  0.68908086  0.40016344    -0.23390
C1495       C  0.72179848  0.68638872  0.39968541     0.19630
C1496       C  0.74155236  0.70977506  0.41651328     0.24660
C1497       C  0.72646311  0.73650368  0.43390759    -0.23330
C1498       C  0.69123319  0.73956417  0.43475695     0.19560
F1499       F  0.67625343  0.76444979  0.45300169    -0.13290
F1500       F  0.63707777  0.71812547  0.42130945    -0.15650
F1501       F  0.77570043  0.70605220  0.41619768    -0.15650
F1502       F  0.73806775  0.66166557  0.38258724    -0.13290
C1503       C  0.69781683  0.71342768  0.54990669     0.24720
C1504       C  0.72833463  0.72559329  0.56349549    -0.23390
C1505       C  0.73927040  0.71515571  0.59546388     0.19630
C1506       C  0.71929072  0.69350799  0.61430606     0.24660
C1507       C  0.68852513  0.68156594  0.60092977    -0.23330
C1508       C  0.67799041  0.69142752  0.56860114     0.19560
F1509       F  0.64828183  0.68024500  0.55555179    -0.13290
F1510       F  0.68739301  0.72260716  0.51844384    -0.15650
F1511       F  0.72899261  0.68586110  0.64641312    -0.15650
F1512       F  0.76837015  0.72725848  0.60907494    -0.13290
C1513       C  0.72146654  0.10345197  0.38367786     0.24720
C1514       C  0.73514057  0.07094778  0.38293387    -0.23390
C1515       C  0.76338202  0.06360092  0.40348063     0.19630
C1516       C  0.77731859  0.08822793  0.42500042     0.24660
C1517       C  0.76364210  0.12104025  0.42597417    -0.23330
C1518       C  0.73552700  0.12824487  0.40471128     0.19560
F1519       F  0.72139994  0.15946543  0.40401660    -0.13290
F1520       F  0.69511575  0.11155890  0.36314197    -0.15650
F1521       F  0.80368955  0.07966195  0.44530081    -0.15650
F1522       F  0.77739996  0.03230885  0.40277754    -0.13290
C1523       C  0.73140437  0.12395791  0.58546701     0.24720
C1524       C  0.76283622  0.11812401  0.56934692    -0.23390
C1525       C  0.77947240  0.08758799  0.57583819     0.19630
C1526       C  0.76512326  0.06344241  0.59756208     0.24660
C1527       C  0.73372320  0.06920660  0.61400232    -0.23330
C1528       C  0.71713990  0.09993822  0.60758487     0.19560
F1529       F  0.68763370  0.10724239  0.62341447    -0.13290
F1530       F  0.71457821  0.15337537  0.58013534    -0.15650
F1531       F  0.78199663  0.03391568  0.60201931    -0.15650
F1532       F  0.80899133  0.08038322  0.55997097    -0.13290
C1533       C  0.87828749  0.27307444  0.58411092     0.24720
C1534       C  0.87831509  0.23870367  0.57378311    -0.23390
C1535       C  0.90400790  0.21761175  0.58639767     0.19630
C1536       C  0.92824654  0.23015748  0.60919611     0.24660
C1537       C  0.92786948  0.26429502  0.61963871    -0.23330
C1538       C  0.90288143  0.28564213  0.60648215     0.19560
F1539       F  0.90158536  0.31850873  0.61607632    -0.13290
F1540       F  0.85463941  0.29500271  0.57230071    -0.15650
F1541       F  0.95262634  0.20886574  0.62070223    -0.15650
F1542       F  0.90564123  0.18472472  0.57694953    -0.13290
C1543       C  0.91367180  0.22104119  0.42764775     0.24720
C1544       C  0.88211876  0.23650739  0.43193518    -0.23390
C1545       C  0.87560903  0.26689460  0.41418583     0.19630
C1546       C  0.89998518  0.28136136  0.39269114     0.24660
C1547       C  0.93171267  0.26599686  0.38847165    -0.23330
C1548       C  0.93814268  0.23556523  0.40640291     0.19560
F1549       F  0.96857488  0.21990555  0.40388436    -0.13290
F1550       F  0.92146321  0.19262608  0.44521605    -0.15650
F1551       F  0.89209249  0.30983226  0.37527137    -0.15650
F1552       F  0.84522248  0.28251320  0.41737876    -0.13290
C1553       C  0.73289936  0.27015143  0.59892340     0.24720
C1554       C  0.72241920  0.26390662  0.56579623    -0.23390
C1555       C  0.69270037  0.27830120  0.55288602     0.19630
C1556       C  0.67360074  0.29966734  0.57314730     0.24660
C1557       C  0.68450726  0.30663605  0.60607488    -0.23330
C1558       C  0.71377060  0.29133067  0.61922099     0.19560
F1559       F  0.72381369  0.29716983  0.65155871    -0.13290
F1560       F  0.76199656  0.25649946  0.61110260    -0.15650
F1561       F  0.64524194  0.31435895  0.56050053    -0.15650
F1562       F  0.68308911  0.27265446  0.52035501    -0.13290
C1563       C  0.72539889  0.30851222  0.44423714     0.24720
C1564       C  0.73314111  0.27569916  0.43355614    -0.23390
C1565       C  0.71824848  0.26222007  0.40450465     0.19630
C1566       C  0.69536824  0.28147651  0.38608896     0.24660
C1567       C  0.68673617  0.31410178  0.39720379    -0.23330
C1568       C  0.70219654  0.32773924  0.42605299     0.19560
F1569       F  0.69420849  0.35926505  0.43688181    -0.13290
F1570       F  0.73902897  0.32114613  0.47314904    -0.15650
F1571       F  0.68207941  0.26853775  0.35714468    -0.15650
F1572       F  0.72576261  0.23040061  0.39423227    -0.13290
C1573       C  0.07854775  0.77258893  0.43647704     0.24720
C1574       C  0.11347953  0.76872112  0.43157489    -0.23390
C1575       C  0.12440725  0.74729131  0.40521764     0.19630
C1576       C  0.10110546  0.73043271  0.38409355     0.24660
C1577       C  0.06616119  0.73434572  0.38896856    -0.23330
C1578       C  0.05522433  0.75592805  0.41525738     0.19560
F1579       F  0.02166765  0.76062068  0.42059485    -0.13290
F1580       F  0.06696612  0.79156157  0.46259121    -0.15650
F1581       F  0.11271616  0.71131757  0.35808764    -0.15650
F1582       F  0.15792487  0.74271427  0.39993575    -0.13290
C1583       C  0.26588527  0.90322682  0.56503442     0.24720
C1584       C  0.23408005  0.88731928  0.56985199    -0.23390
C1585       C  0.21675101  0.89440648  0.60006298     0.19630
C1586       C  0.23058425  0.91662271  0.62439660     0.24660
C1587       C  0.26243180  0.93222002  0.61959599    -0.23330
C1588       C  0.27984023  0.92503703  0.58955906     0.19560
F1589       F  0.30981328  0.94029958  0.58314628    -0.13290
F1590       F  0.28352812  0.89825499  0.53603171    -0.15650
F1591       F  0.21282624  0.92256863  0.65311382    -0.15650
F1592       F  0.18675500  0.87923562  0.60655190    -0.13290
C1593       C  0.08344868  0.76408011  0.56745337     0.24720
C1594       C  0.11791864  0.76730023  0.57561838    -0.23390
C1595       C  0.12952672  0.75363919  0.60648776     0.19630
C1596       C  0.10711878  0.73792346  0.62900174     0.24660
C1597       C  0.07283242  0.73414487  0.62059184    -0.23330
C1598       C  0.06117780  0.74746331  0.58962972     0.19560
F1599       F  0.02797705  0.74517213  0.58129135    -0.13290
F1600       F  0.07160591  0.77579650  0.53739726    -0.15650
F1601       F  0.11891692  0.72628219  0.65911944    -0.15650
F1602       F  0.16277758  0.75549649  0.61481482    -0.13290
C1603       C  0.22982662  0.93198866  0.39564663     0.24720
C1604       C  0.26236359  0.92822378  0.38158114    -0.23390
C1605       C  0.28156217  0.89994770  0.39055666     0.19630
C1606       C  0.26851541  0.87571352  0.41291027     0.24660
C1607       C  0.23593779  0.87949978  0.42758201    -0.23330
C1608       C  0.21693754  0.90822490  0.41864817     0.19560
F1609       F  0.18588061  0.91351021  0.43214510    -0.13290
F1610       F  0.21052350  0.95912540  0.38735588    -0.15650
F1611       F  0.28817616  0.84852623  0.42012590    -0.15650
F1612       F  0.31255520  0.89511905  0.37673146    -0.13290
C1613       C  0.27662452  0.69997757  0.56020716     0.24720
C1614       C  0.27117404  0.73415617  0.56837190    -0.23390
C1615       C  0.28764295  0.74841964  0.59636454     0.19630
C1616       C  0.30832211  0.72838418  0.61671526     0.24660
C1617       C  0.31326491  0.69410994  0.60871425    -0.23330
C1618       C  0.29761815  0.68024316  0.58013047     0.19560
F1619       F  0.30262575  0.64741693  0.57154922    -0.13290
F1620       F  0.26215604  0.68562361  0.53251655    -0.15650
F1621       F  0.32225011  0.74210926  0.64496149    -0.15650
F1622       F  0.28289968  0.78134362  0.60462592    -0.13290
C1623       C  0.31957398  0.69633965  0.43013295     0.24720
C1624       C  0.30670780  0.68202623  0.40044609    -0.23390
C1625       C  0.27265740  0.68718030  0.39145021     0.19630
C1626       C  0.25208486  0.70754803  0.41138750     0.24660
C1627       C  0.26550240  0.72340734  0.44011736    -0.23330
C1628       C  0.29916706  0.71688203  0.44988108     0.19560
F1629       F  0.31251267  0.73055680  0.47845746    -0.13290
F1630       F  0.35229367  0.69131295  0.43931194    -0.15650
F1631       F  0.21972371  0.71318886  0.40153699    -0.15650
F1632       F  0.25995615  0.67451517  0.36212849    -0.13290
loop_ 
_geom_bond_atom_site_label_1 
_geom_bond_atom_site_label_2 
_geom_bond_distance 
_geom_bond_site_symmetry_2 
_ccdc_geom_bond_type 
O1           C16   1.261       .  A
O1           Al9   1.890       .  S
C2           O12   1.273       .  A
C2            O3   1.254       .  A
C2         C1574   1.496       .  S
O3           Al5   1.886       .  S
O4            C6   1.258       .  A
O4           Al5   1.892       .  S
Al5          O13   1.869       .  S
Al5          O15   1.883       .  S
Al5          O14   1.785       .  S
C6           O19   1.257       .  A
C6         C1627   1.462       .  S
O7           C17   1.258       .  A
O7           Al9   1.868       .  S
O8           C21   1.275       .  A
O8          Al18   1.980       .  S
Al9          O22   1.889       .  S
Al9          O19   1.886       .  S
Al9          O14   1.785       .  S
O10          C17   1.280       .  A
O10         Al18   1.987       .  S
O11          C20   1.276       .  A
O11         Al18   1.979       .  S
O12         Al18   1.967       .  S
O13          C20   1.255       .  A
O14         Al18   1.780       .  S
O15          C16   1.259       .  A
C16        C1614   1.460       .  S
C17        C1607   1.505       .  S
C20        C1594   1.489       .  S
C21          O22   1.254       .  A
C21        C1584   1.514       .  S
O23          C38   1.254       .  A
O23         Al31   1.869       .  S
C24          O34   1.274       .  A
C24          O25   1.256       .  A
C24        C1544   1.497       .  S
O25         Al27   1.888       .  S
O26          C28   1.254       .  A
O26         Al27   1.875       .  S
Al27         O35   1.867       .  S
Al27         O37   1.889       .  S
Al27         O36   1.786       .  S
C28          O41   1.256       .  A
C28        C1564   1.441       .  S
O29          C39   1.254       .  A
O29         Al31   1.860       .  S
O30          C43   1.274       .  A
O30         Al40   1.966       .  S
Al31         O44   1.890       .  S
Al31         O41   1.886       .  S
Al31         O36   1.784       .  S
O32          C39   1.278       .  A
O32         Al40   1.986       .  S
O33          C42   1.277       .  A
O33         Al40   1.981       .  S
O34         Al40   1.963       .  S
O35          C42   1.255       .  A
O36         Al40   1.781       .  S
O37          C38   1.257       .  A
C38        C1554   1.434       .  S
C39        C1517   1.501       .  S
C42        C1534   1.503       .  S
C43          O44   1.255       .  A
C43        C1524   1.500       .  S
O45          C60   1.262       .  A
O45         Al53   1.885       .  S
C46          O56   1.274       .  A
C46          O47   1.252       .  A
C46        C1454   1.499       .  S
O47         Al49   1.874       .  S
O48          C50   1.254       .  A
O48         Al49   1.879       .  S
Al49         O57   1.862       .  S
Al49         O59   1.883       .  S
Al49         O58   1.778       .  S
C50          O63   1.254       .  A
C50        C1504   1.448       .  S
O51          C61   1.258       .  A
O51         Al53   1.862       .  S
O52          C65   1.272       .  A
O52         Al62   1.972       .  S
Al53         O66   1.889       .  S
Al53         O63   1.887       .  S
Al53         O58   1.790       .  S
O54          C61   1.281       .  A
O54         Al62   1.988       .  S
O55          C64   1.276       .  A
O55         Al62   1.976       .  S
O56         Al62   1.968       .  S
O57          C64   1.254       .  A
O58         Al62   1.777       .  S
O59          C60   1.261       .  A
C60        C1497   1.448       .  S
C61        C1464   1.501       .  S
C64        C1487   1.497       .  S
C65          O66   1.252       .  A
C65        C1474   1.497       .  S
O67          C82   1.253       .  A
O67         Al75   1.873       .  S
C68          O78   1.272       .  A
C68          O69   1.257       .  A
C68        C1414   1.502       .  S
O69         Al71   1.905       .  S
O70          C72   1.258       .  A
O70         Al71   1.879       .  S
Al71         O79   1.860       .  S
Al71         O81   1.892       .  S
Al71         O80   1.786       .  S
C72          O85   1.258       .  A
C72        C1444   1.439       .  S
O73          C83   1.255       .  A
O73         Al75   1.864       .  S
O74          C87   1.274       .  A
O74         Al84   1.966       .  S
Al75         O88   1.885       .  S
Al75         O85   1.891       .  S
Al75         O80   1.788       .  S
O76          C83   1.275       .  A
O76         Al84   1.973       .  S
O77          C86   1.280       .  A
O77         Al84   1.992       .  S
O78         Al84   1.968       .  S
O79          C86   1.254       .  A
O80         Al84   1.779       .  S
O81          C82   1.256       .  A
C82        C1437   1.441       .  S
C83        C1427   1.487       .  S
C86        C1404   1.504       .  S
C87          O88   1.255       .  A
C87        C1394   1.496       .  S
O89         C104   1.261       .  A
O89         Al97   1.888       .  S
C90         O100   1.272       .  A
C90          O91   1.251       .  A
C90        C1354   1.498       .  S
O91         Al93   1.870       .  S
O92          C94   1.256       .  A
O92         Al93   1.882       .  S
Al93        O101   1.866       .  S
Al93        O103   1.884       .  S
Al93        O102   1.790       .  S
C94         O107   1.252       .  A
C94        C1384   1.453       .  S
O95         C105   1.259       .  A
O95         Al97   1.875       .  S
O96         C109   1.269       .  A
O96        Al106   1.962       .  S
Al97        O110   1.880       .  S
Al97        O107   1.879       .  S
Al97        O102   1.795       .  S
O98         C105   1.276       .  A
O98        Al106   1.969       .  S
O99         C108   1.272       .  A
O99        Al106   1.957       .  S
O100       Al106   1.969       .  S
O101        C108   1.255       .  A
O102       Al106   1.788       .  S
O103        C104   1.259       .  A
C104       C1374   1.466       .  S
C105       C1344   1.485       .  S
C108       C1367   1.478       .  S
C109        O110   1.250       .  A
C109       C1334   1.492       .  S
O111        C126   1.256       .  A
O111       Al119   1.889       .  S
C112        O122   1.277       .  A
C112        O113   1.258       .  A
C112       C1307   1.508       .  S
O113       Al115   1.901       .  S
O114        C116   1.258       .  A
O114       Al115   1.877       .  S
Al115       O123   1.871       .  S
Al115       O125   1.877       .  S
Al115       O124   1.782       .  S
C116        O129   1.261       .  A
C116       C1327   1.443       .  S
O117        C127   1.254       .  A
O117       Al119   1.877       .  S
O118        C131   1.277       .  A
O118       Al128   1.962       .  S
Al119       O132   1.899       .  S
Al119       O129   1.890       .  S
Al119       O124   1.776       .  S
O120        C127   1.272       .  A
O120       Al128   1.971       .  S
O121        C130   1.276       .  A
O121       Al128   1.981       .  S
O122       Al128   1.973       .  S
O123        C130   1.256       .  A
O124       Al128   1.776       .  S
O125        C126   1.255       .  A
C126       C1314   1.461       .  S
C127       C1277   1.489       .  S
C130       C1294   1.481       .  S
C131        O132   1.260       .  A
C131       C1287   1.504       .  S
O133        C148   1.255       .  A
O133       Al141   1.879       .  S
C134        O144   1.277       .  A
C134        O135   1.257       .  A
C134       C1214   1.512       .  S
O135       Al137   1.896       .  S
O136        C138   1.259       .  A
O136       Al137   1.883       .  S
Al137       O145   1.880       .  S
Al137       O147   1.889       .  S
Al137       O146   1.787       .  S
C138        O151   1.260       .  A
C138       C1264   1.446       .  S
O139        C149   1.254       .  A
O139       Al141   1.866       .  S
O140        C153   1.278       .  A
O140       Al150   1.978       .  S
Al141       O154   1.888       .  S
Al141       O151   1.887       .  S
Al141       O146   1.778       .  S
O142        C149   1.276       .  A
O142       Al150   1.981       .  S
O143        C152   1.277       .  A
O143       Al150   1.983       .  S
O144       Al150   1.975       .  S
O145        C152   1.258       .  A
O146       Al150   1.777       .  S
O147        C148   1.255       .  A
C148       C1254   1.447       .  S
C149       C1227   1.500       .  S
C152       C1247   1.487       .  S
C153        O154   1.256       .  A
C153       C1237   1.511       .  S
O155        C170   1.256       .  A
O155       Al163   1.879       .  S
C156        O166   1.273       .  A
C156        O157   1.257       .  A
C156       C1184   1.494       .  S
O157       Al159   1.902       .  S
O158        C160   1.256       .  A
O158       Al159   1.877       .  S
Al159       O167   1.861       .  S
Al159       O169   1.881       .  S
Al159       O168   1.786       .  S
C160        O173   1.258       .  A
C160       C1194   1.439       .  S
O161        C171   1.256       .  A
O161       Al163   1.876       .  S
O162        C175   1.275       .  A
O162       Al172   1.959       .  S
Al163       O176   1.900       .  S
Al163       O173   1.885       .  S
Al163       O168   1.783       .  S
O164        C171   1.274       .  A
O164       Al172   1.977       .  S
O165        C174   1.278       .  A
O165       Al172   1.992       .  S
O166       Al172   1.966       .  S
O167        C174   1.254       .  A
O168       Al172   1.779       .  S
O169        C170   1.256       .  A
C170       C1204   1.446       .  S
C171       C1157   1.492       .  S
C174       C1174   1.498       .  S
C175        O176   1.259       .  A
C175       C1164   1.501       .  S
O177        C192   1.258       .  A
O177       Al185   1.882       .  S
C178        O188   1.272       .  A
C178        O179   1.250       .  A
C178       C1104   1.497       .  S
O179       Al181   1.882       .  S
O180        C182   1.261       .  A
O180       Al181   1.890       .  S
Al181       O189   1.864       .  S
Al181       O191   1.886       .  S
Al181       O190   1.796       .  S
C182        O195   1.256       .  A
C182       C1144   1.463       .  S
O183        C193   1.256       .  A
O183       Al185   1.865       .  S
O184        C197   1.274       .  A
O184       Al194   1.978       .  S
Al185       O198   1.874       .  S
Al185       O195   1.873       .  S
Al185       O190   1.786       .  S
O186        C193   1.276       .  A
O186       Al194   1.974       .  S
O187        C196   1.279       .  A
O187       Al194   1.978       .  S
O188       Al194   1.977       .  S
O189        C196   1.258       .  A
O190       Al194   1.783       .  S
O191        C192   1.255       .  A
C192       C1134   1.469       .  S
C193       C1094   1.498       .  S
C196       C1124   1.489       .  S
C197        O198   1.251       .  A
C197       C1114   1.507       .  S
O199        C214   1.260       .  A
O199       Al207   1.890       .  S
C200        O210   1.276       .  A
C200        O201   1.251       .  A
C200       C1034   1.516       .  S
O201       Al203   1.875       .  S
O202        C204   1.260       .  A
O202       Al203   1.892       .  S
Al203       O211   1.864       .  S
Al203       O213   1.882       .  S
Al203       O212   1.783       .  S
C204        O217   1.257       .  A
C204       C1074   1.454       .  S
O205        C215   1.255       .  A
O205       Al207   1.860       .  S
O206        C219   1.275       .  A
O206       Al216   1.983       .  S
Al207       O220   1.879       .  S
Al207       O217   1.879       .  S
Al207       O212   1.780       .  S
O208        C215   1.280       .  A
O208       Al216   1.990       .  S
O209        C218   1.281       .  A
O209       Al216   1.988       .  S
O210       Al216   1.984       .  S
O211        C218   1.257       .  A
O212       Al216   1.777       .  S
O213        C214   1.256       .  A
C214       C1084   1.453       .  S
C215       C1044   1.505       .  S
C218       C1064   1.504       .  S
C219        O220   1.252       .  A
C219       C1057   1.511       .  S
O221        C236   1.257       .  A
O221       Al229   1.884       .  S
C222        O232   1.274       .  A
C222        O223   1.257       .  A
C222        C977   1.501       .  S
O223       Al225   1.906       .  S
O224        C226   1.259       .  A
O224       Al225   1.881       .  S
Al225       O233   1.870       .  S
Al225       O235   1.889       .  S
Al225       O234   1.785       .  S
C226        O239   1.261       .  A
C226       C1024   1.445       .  S
O227        C237   1.252       .  A
O227       Al229   1.865       .  S
O228        C241   1.277       .  A
O228       Al238   1.971       .  S
Al229       O242   1.894       .  S
Al229       O239   1.891       .  S
Al229       O234   1.779       .  S
O230        C237   1.272       .  A
O230       Al238   1.966       .  S
O231        C240   1.277       .  A
O231       Al238   1.980       .  S
O232       Al238   1.974       .  S
O233        C240   1.257       .  A
O234       Al238   1.775       .  S
O235        C236   1.257       .  A
C236       C1014   1.466       .  S
C237       C1004   1.476       .  S
C240        C997   1.491       .  S
C241        O242   1.258       .  A
C241        C984   1.514       .  S
O243        C258   1.254       .  A
O243       Al251   1.876       .  S
C244        O254   1.275       .  A
C244        O245   1.257       .  A
C244        C934   1.504       .  S
O245       Al247   1.898       .  S
O246        C248   1.261       .  A
O246       Al247   1.890       .  S
Al247       O255   1.871       .  S
Al247       O257   1.880       .  S
Al247       O256   1.784       .  S
C248        O261   1.258       .  A
C248        C954   1.465       .  S
O249        C259   1.255       .  A
O249       Al251   1.870       .  S
O250        C263   1.275       .  A
O250       Al260   1.968       .  S
Al251       O264   1.884       .  S
Al251       O261   1.883       .  S
Al251       O256   1.787       .  S
O252        C259   1.272       .  A
O252       Al260   1.964       .  S
O253        C262   1.274       .  A
O253       Al260   1.976       .  S
O254       Al260   1.974       .  S
O255        C262   1.255       .  A
O256       Al260   1.780       .  S
O257        C258   1.255       .  A
C258        C967   1.442       .  S
C259        C944   1.477       .  S
C262        C924   1.485       .  S
C263        O264   1.255       .  A
C263        C914   1.494       .  S
C265       C1027   1.465       .  S
C265        C266   1.396       .  A
C265        C270   1.395       .  A
C266        C267   1.393       .  A
C266        H271   1.085       .  S
C267       C1197   1.457       .  S
C267        C268   1.398       .  A
C268        C269   1.397       .  A
C268        H272   1.084       .  S
C269        C957   1.471       .  S
C269        C270   1.400       .  A
C270        H273   1.084       .  S
C274        C964   1.470       .  S
C274        C275   1.397       .  A
C274        C279   1.395       .  A
C275        C276   1.398       .  A
C275        H280   1.082       .  S
C276       C1267   1.475       .  S
C276        C277   1.400       .  A
C277        C278   1.396       .  A
C277        H281   1.084       .  S
C278       C1434   1.466       .  S
C278        C279   1.395       .  A
C279        H282   1.084       .  S
C283       C1557   1.449       .  S
C283        C284   1.390       .  A
C283        C288   1.390       .  A
C284        C285   1.393       .  A
C284        H289   1.085       .  S
C285       C1087   1.461       .  S
C285        C286   1.400       .  A
C286        C287   1.400       .  A
C286        H290   1.083       .  S
C287       C1017   1.473       .  S
C287        C288   1.401       .  A
C288        H291   1.084       .  S
C292       C1077   1.460       .  S
C292        C293   1.394       .  A
C292        C297   1.391       .  A
C293        C294   1.393       .  A
C293        H298   1.085       .  S
C294       C1507   1.457       .  S
C294        C295   1.396       .  A
C295        C296   1.396       .  A
C295        H299   1.084       .  S
C296       C1147   1.467       .  S
C296        C297   1.400       .  A
C297        H300   1.084       .  S
C301       C1137   1.485       .  S
C301        C302   1.406       .  A
C301        C306   1.404       .  A
C302        C303   1.394       .  A
C302        H307   1.079       .  S
C303       C1617   1.464       .  S
C303        C304   1.392       .  A
C304        C305   1.392       .  A
C304        H308   1.085       .  S
C305       C1207   1.466       .  S
C305        C306   1.400       .  A
C306        H309   1.083       .  S
C310       C1257   1.458       .  S
C310        C311   1.395       .  A
C310        C315   1.394       .  A
C311        C312   1.395       .  A
C311        H316   1.085       .  S
C312       C1624   1.462       .  S
C312        C313   1.399       .  A
C313        C314   1.395       .  A
C313        H317   1.085       .  S
C314       C1324   1.465       .  S
C314        C315   1.398       .  A
C315        H318   1.085       .  S
C319       C1494   1.479       .  S
C319        C320   1.401       .  A
C319        C324   1.399       .  A
C320        C321   1.398       .  A
C320        H325   1.083       .  S
C321       C1387   1.459       .  S
C321        C322   1.395       .  A
C322        C323   1.392       .  A
C322        H326   1.084       .  S
C323       C1317   1.463       .  S
C323        C324   1.397       .  A
C324        H327   1.083       .  S
C328       C1447   1.452       .  S
C328        C329   1.392       .  A
C328        C333   1.396       .  A
C329        C330   1.394       .  A
C329        H334   1.085       .  S
C330       C1567   1.459       .  S
C330        C331   1.393       .  A
C331        C332   1.400       .  A
C331        H335   1.084       .  S
C332       C1377   1.470       .  S
C332        C333   1.398       .  A
C333        H336   1.084       .  S
O337        C352   1.259       .  A
O337       Al345   1.884       .  S
C338        O348   1.272       .  A
C338        O339   1.252       .  A
C338       C1107   1.497       .  S
O339       Al341   1.887   1_565  S
O340        C342   1.258       .  A
O340       Al341   1.881   1_565  S
Al341       O349   1.868       .  S
Al341       O351   1.887       .  S
Al341       O350   1.788       .  S
C342        O355   1.256       .  A
C342        C904   1.451       .  S
O343        C353   1.258       .  A
O343       Al345   1.868   1_565  S
O344        C357   1.274       .  A
O344       Al354   1.980       .  S
Al345       O358   1.872       .  S
Al345       O355   1.884   1_545  S
Al345       O350   1.790       .  S
O346        C353   1.276       .  A
O346       Al354   1.968   1_565  S
O347        C356   1.275       .  A
O347       Al354   1.968       .  S
O348       Al354   1.971   1_565  S
O349        C356   1.256       .  A
O350       Al354   1.780       .  S
O351        C352   1.258       .  A
C352        C897   1.458       .  S
C353       C1467   1.482       .  S
C356        C994   1.478       .  S
C357        O358   1.251       .  A
C357       C1527   1.508       .  S
C359        C887   1.447       .  S
C359        C360   1.391       .  A
C359        C364   1.389       .  A
C360        C361   1.395       .  A
C360        H365   1.085       .  S
C361        C894   1.464       .  S
C361        C362   1.400       .  A
C362        C363   1.397       .  A
C362        H366   1.084       .  S
C363        C877   1.464       .  S
C363        C364   1.396       .  A
C364        H367   1.085       .  S
O368        C383   1.253       .  A
O368       Al376   1.873       .  S
C369        O379   1.274       .  A
C369        O370   1.254       .  A
C369       C1054   1.503       .  S
O370       Al372   1.889   1_655  S
O371        C373   1.256       .  A
O371       Al372   1.878   1_655  S
Al372       O380   1.876       .  S
Al372       O382   1.885       .  S
Al372       O381   1.788       .  S
C373        O386   1.258       .  A
C373        C884   1.439       .  S
O374        C384   1.255       .  A
O374       Al376   1.866   1_655  S
O375        C388   1.275       .  A
O375       Al385   1.970   1_455  S
Al376       O389   1.882       .  S
Al376       O386   1.889   1_455  S
Al376       O381   1.794       .  S
O377        C384   1.275       .  A
O377       Al385   1.971       .  S
O378        C387   1.276       .  A
O378       Al385   1.977   1_455  S
O379       Al385   1.971       .  S
O380        C387   1.257       .  A
O381       Al385   1.784   1_455  S
O382        C383   1.255       .  A
C383        C867   1.443       .  S
C384       C1537   1.492       .  S
C387       C1154   1.484       .  S
C388        O389   1.254       .  A
C388        C937   1.498       .  S
O390        C405   1.255       .  A
O390       Al398   1.878   1_565  S
C391        O401   1.273       .  A
C391        O392   1.255       .  A
C391        C974   1.497       .  S
O392       Al394   1.896       .  S
O393        C395   1.256       .  A
O393       Al394   1.876       .  S
Al394       O402   1.869   1_545  S
Al394       O404   1.895   1_545  S
Al394       O403   1.790       .  S
C395        O408   1.260       .  A
C395        C847   1.448       .  S
O396        C406   1.254       .  A
O396       Al398   1.862       .  S
O397        C410   1.275       .  A
O397       Al407   1.969   1_565  S
Al398       O411   1.898   1_545  S
Al398       O408   1.898       .  S
Al398       O403   1.783       .  S
O399        C406   1.275       .  A
O399       Al407   1.978       .  S
O400        C409   1.278       .  A
O400       Al407   1.979   1_565  S
O401       Al407   1.968       .  S
O402        C409   1.257       .  A
O403       Al407   1.783       .  S
O404        C405   1.258       .  A
C405        C854   1.462       .  S
C406        C947   1.494       .  S
C409       C1127   1.502       .  S
C410        O411   1.258       .  A
C410       C1587   1.508       .  S
C412        C837   1.481       .  S
C412        C413   1.401       .  A
C412        C417   1.404       .  A
C413        C414   1.401       .  A
C413        H418   1.082       .  S
C414        C864   1.467       .  S
C414        C415   1.394       .  A
C415        C416   1.395       .  A
C415        H419   1.084       .  S
C416        C844   1.468       .  S
C416        C417   1.394       .  A
C417        H420   1.083       .  S
O421        C436   1.257       .  A
O421       Al429   1.890       .  S
C422        O432   1.274       .  A
C422        O423   1.254       .  A
C422       C1457   1.507       .  S
O423       Al425   1.887   1_655  S
O424        C426   1.262       .  A
O424       Al425   1.892   1_655  S
Al425       O433   1.879       .  S
Al425       O435   1.881       .  S
Al425       O434   1.787       .  S
C426        O439   1.260       .  A
C426        C824   1.461       .  S
O427        C437   1.256       .  A
O427       Al429   1.869   1_655  S
O428        C441   1.276       .  A
O428       Al438   1.979   1_455  S
Al429       O442   1.875       .  S
Al429       O439   1.887   1_455  S
Al429       O434   1.782       .  S
O430        C437   1.276       .  A
O430       Al438   1.973       .  S
O431        C440   1.278       .  A
O431       Al438   1.982   1_455  S
O432       Al438   1.973       .  S
O433        C440   1.259       .  A
O434       Al438   1.776   1_455  S
O435        C436   1.254       .  A
C436        C814   1.450       .  S
C437       C1047   1.490       .  S
C440       C1597   1.485       .  S
C441        O442   1.253       .  A
C441       C1167   1.507       .  S
C443        C817   1.458       .  S
C443        C444   1.397       .  A
C443        C448   1.392       .  A
C444        C445   1.398       .  A
C444        H449   1.084       .  S
C445        C857   1.467       .  S
C445        C446   1.400       .  A
C446        C447   1.392       .  A
C446        H450   1.084       .  S
C447        C804   1.458       .  S
C447        C448   1.394       .  A
C448        H451   1.085       .  S
O452        C467   1.258       .  A
O452       Al460   1.887   1_556  S
C453        O463   1.279       .  A
C453        O454   1.255       .  A
C453       C1234   1.516       .  S
O454       Al456   1.885       .  S
O455        C457   1.257       .  A
O455       Al456   1.880       .  S
Al456       O464   1.872   1_554  S
Al456       O466   1.884   1_554  S
Al456       O465   1.785       .  S
C457        O470   1.257       .  A
C457        C797   1.446       .  S
O458        C468   1.255       .  A
O458       Al460   1.869       .  S
O459        C472   1.277       .  A
O459       Al469   1.981   1_556  S
Al460       O473   1.892   1_554  S
Al460       O470   1.884       .  S
Al460       O465   1.783       .  S
O461        C468   1.275       .  A
O461       Al469   1.979       .  S
O462        C471   1.276       .  A
O462       Al469   1.975   1_556  S
O463       Al469   1.985       .  S
O464        C471   1.257       .  A
O465       Al469   1.775       .  S
O466        C467   1.258       .  A
C467        C807   1.454       .  S
C468       C1274   1.482       .  S
C471       C1177   1.493       .  S
C472        O473   1.256       .  A
C472       C1117   1.513       .  S
O474        C489   1.258       .  A
O474       Al482   1.888   1_455  S
C475        O485   1.275       .  A
C475        O476   1.256       .  A
C475       C1357   1.504       .  S
O476       Al478   1.896   1_655  S
O477        C479   1.261       .  A
O477       Al478   1.887   1_655  S
Al478       O486   1.876       .  S
Al478       O488   1.873       .  S
Al478       O487   1.783   1_455  S
C479        O492   1.260       .  A
C479        C787   1.445       .  S
O480        C490   1.254       .  A
O480       Al482   1.864       .  S
O481        C494   1.276       .  A
O481       Al491   1.971   1_455  S
Al482       O495   1.894   1_655  S
Al482       O492   1.890       .  S
Al482       O487   1.781       .  S
O483        C490   1.275       .  A
O483       Al491   1.977       .  S
O484        C493   1.278       .  A
O484       Al491   1.988   1_455  S
O485       Al491   1.974       .  S
O486        C493   1.257       .  A
O487       Al491   1.773       .  S
O488        C489   1.254       .  A
C489        C774   1.464       .  S
C490       C1484   1.494       .  S
C493       C1244   1.488       .  S
C494        O495   1.257       .  A
C494       C1577   1.498       .  S
C496        C794   1.469       .  S
C496        C497   1.395       .  A
C496        C501   1.397       .  A
C497        C498   1.400       .  A
C497        H502   1.084       .  S
C498        C777   1.469       .  S
C498        C499   1.395       .  A
C499        C500   1.396       .  A
C499        H503   1.084       .  S
C500        C767   1.457       .  S
C500        C501   1.394       .  A
C501        H504   1.084       .  S
O505        C520   1.254       .  A
O505       Al513   1.881       .  S
C506        O516   1.276       .  A
C506        O507   1.258       .  A
C506       C1037   1.507       .  S
O507       Al509   1.901   1_556  S
O508        C510   1.257       .  A
O508       Al509   1.873   1_556  S
Al509       O517   1.876       .  S
Al509       O519   1.886       .  S
Al509       O518   1.789       .  S
C510        O523   1.259       .  A
C510        C754   1.439       .  S
O511        C521   1.255       .  A
O511       Al513   1.871   1_556  S
O512        C525   1.277       .  A
O512       Al522   1.973       .  S
Al513       O526   1.887       .  S
Al513       O523   1.885   1_554  S
Al513       O518   1.781       .  S
O514        C521   1.274       .  A
O514       Al522   1.971   1_556  S
O515        C524   1.274       .  A
O515       Al522   1.972       .  S
O516       Al522   1.967   1_556  S
O517        C524   1.257       .  A
O518       Al522   1.778       .  S
O519        C520   1.255       .  A
C520        C747   1.441       .  S
C521       C1097   1.495       .  S
C524       C1347   1.479       .  S
C525        O526   1.257       .  A
C525       C1284   1.510       .  S
C527        C784   1.466       .  S
C527        C528   1.399       .  A
C527        C532   1.395       .  A
C528        C529   1.399       .  A
C528        H533   1.084       .  S
C529        C737   1.468       .  S
C529        C530   1.398       .  A
C530        C531   1.392       .  A
C530        H534   1.085       .  S
C531        C744   1.453       .  S
C531        C532   1.393       .  A
C532        H535   1.085       .  S
O536        C551   1.254       .  A
O536       Al544   1.881   1_556  S
C537        O547   1.272       .  A
C537        O538   1.253       .  A
C537       C1397   1.505       .  S
O538       Al540   1.896   1_554  S
O539        C541   1.261       .  A
O539       Al540   1.871   1_554  S
Al540       O548   1.860       .  S
Al540       O550   1.885       .  S
Al540       O549   1.789       .  S
C541        O554   1.264       .  A
C541        C724   1.436       .  S
O542        C552   1.252       .  A
O542       Al544   1.860       .  S
O543        C556   1.274       .  A
O543       Al553   1.963   1_556  S
Al544       O557   1.884   1_554  S
Al544       O554   1.891       .  S
Al544       O549   1.778   1_554  S
O545        C552   1.274       .  A
O545       Al553   1.972       .  S
O546        C555   1.283       .  A
O546       Al553   1.995   1_556  S
O547       Al553   1.975       .  S
O548        C555   1.259       .  A
O549       Al553   1.776   1_556  S
O550        C551   1.252       .  A
C551        C834   1.468       .  S
C552       C1224   1.496       .  S
C555       C1007   1.493       .  S
C556        O557   1.255       .  A
C556       C1187   1.492       .  S
O558        C573   1.260       .  A
O558       Al566   1.888   1_545  S
C559        O569   1.274       .  A
C559        O560   1.252       .  A
C559       C1304   1.499       .  S
O560       Al562   1.875   1_565  S
O561        C563   1.252       .  A
O561       Al562   1.871   1_565  S
Al562       O570   1.861       .  S
Al562       O572   1.881       .  S
Al562       O571   1.791       .  S
C563        O576   1.255       .  A
C563        C764   1.439       .  S
O564        C574   1.258       .  A
O564       Al566   1.871       .  S
O565        C578   1.273       .  A
O565       Al575   1.974       .  S
Al566       O579   1.881   1_565  S
Al566       O576   1.887       .  S
Al566       O571   1.794   1_565  S
O567        C574   1.277       .  A
O567       Al575   1.977   1_565  S
O568        C577   1.274       .  A
O568       Al575   1.971       .  S
O569       Al575   1.969   1_565  S
O570        C577   1.254       .  A
O571       Al575   1.782       .  S
O572        C573   1.258       .  A
C573        C714   1.465       .  S
C574       C1604   1.488       .  S
C577       C1407   1.485       .  S
C578        O579   1.252       .  A
C578        C917   1.500       .  S
O580        C595   1.260       .  A
O580       Al588   1.886   1_455  S
C581        O591   1.276       .  A
C581        O582   1.255       .  A
C581       C1547   1.505       .  S
O582       Al584   1.885   1_655  S
O583        C585   1.262       .  A
O583       Al584   1.895   1_655  S
Al584       O592   1.874       .  S
Al584       O594   1.875       .  S
Al584       O593   1.783   1_455  S
C585        O598   1.255       .  A
C585        C704   1.460       .  S
O586        C596   1.256       .  A
O586       Al588   1.867       .  S
O587        C600   1.277       .  A
O587       Al597   1.982   1_455  S
Al588       O601   1.886   1_655  S
Al588       O598   1.874       .  S
Al588       O593   1.779       .  S
O589        C596   1.277       .  A
O589       Al597   1.976       .  S
O590        C599   1.274       .  A
O590       Al597   1.972   1_455  S
O591       Al597   1.972       .  S
O592        C599   1.256       .  A
O593       Al597   1.776       .  S
O594        C595   1.255       .  A
C595        C697   1.445       .  S
C596       C1364   1.496       .  S
C599        C927   1.481       .  S
C600        O601   1.254       .  A
C600       C1217   1.516       .  S
C602        C717   1.466       .  S
C602        C603   1.398       .  A
C602        C607   1.396       .  A
C603        C604   1.392       .  A
C603        H608   1.084       .  S
C604        C727   1.461       .  S
C604        C605   1.393       .  A
C605        C606   1.394       .  A
C605        H609   1.085       .  S
C606        C694   1.455       .  S
C606        C607   1.397       .  A
C607        H610   1.084       .  S
O611        C626   1.258       .  A
O611       Al619   1.879       .  S
C612        O622   1.275       .  A
C612        O613   1.257       .  A
C612        C987   1.509       .  S
O613       Al615   1.892   1_556  S
O614        C616   1.255       .  A
O614       Al615   1.877   1_556  S
Al615       O623   1.863       .  S
Al615       O625   1.895       .  S
Al615       O624   1.780       .  S
C616        O629   1.257       .  A
C616        C874   1.460       .  S
O617        C627   1.258       .  A
O617       Al619   1.867   1_556  S
O618        C631   1.273       .  A
O618       Al628   1.972       .  S
Al619       O632   1.891       .  S
Al619       O629   1.894   1_554  S
Al619       O624   1.790       .  S
O620        C627   1.279       .  A
O620       Al628   1.984   1_556  S
O621        C630   1.276       .  A
O621       Al628   1.978       .  S
O622       Al628   1.966   1_556  S
O623        C630   1.254       .  A
O624       Al628   1.776       .  S
O625        C626   1.260       .  A
C626        C684   1.444       .  S
C627       C1067   1.484       .  S
C630       C1424   1.502       .  S
C631        O632   1.254       .  A
C631       C1337   1.497       .  S
O633        C648   1.254       .  A
O633       Al641   1.874       .  S
C634        O644   1.271       .  A
C634        O635   1.255       .  A
C634       C1417   1.498       .  S
O635       Al637   1.896   1_545  S
O636        C638   1.257       .  A
O636       Al637   1.879   1_545  S
Al637       O645   1.863       .  S
Al637       O647   1.888       .  S
Al637       O646   1.795       .  S
C638        O651   1.257       .  A
C638        C677   1.451       .  S
O639        C649   1.255       .  A
O639       Al641   1.867   1_545  S
O640        C653   1.272       .  A
O640       Al650   1.967   1_565  S
Al641       O654   1.876       .  S
Al641       O651   1.874   1_565  S
Al641       O646   1.793       .  S
O642        C649   1.274       .  A
O642       Al650   1.965       .  S
O643        C652   1.273       .  A
O643       Al650   1.967   1_565  S
O644       Al650   1.961       .  S
O645        C652   1.254       .  A
O646       Al650   1.788   1_565  S
O647        C648   1.256       .  A
C648        C734   1.444       .  S
C649       C1514   1.480       .  S
C652       C1297   1.478       .  S
C653        O654   1.251       .  A
C653       C1477   1.492       .  S
C655        C687   1.467       .  S
C655        C656   1.392       .  A
C655        C660   1.399       .  A
C656        C657   1.392       .  A
C656        H661   1.085       .  S
C657        C707   1.461       .  S
C657        C658   1.394       .  A
C658        C659   1.403       .  A
C658        H662   1.082       .  S
C659        C674   1.484       .  S
C659        C660   1.406       .  A
C660        H663   1.081       .  S
C664        C757   1.463       .  S
C664        C665   1.393       .  A
C664        C669   1.397       .  A
C665        C666   1.398       .  A
C665        H670   1.085       .  S
C666        C827   1.464       .  S
C666        C667   1.395       .  A
C667        C668   1.397       .  A
C667        H671   1.084       .  S
C668        C907   1.461       .  S
C668        C669   1.396       .  A
C669        H672   1.085       .  S
C673        C674   1.415       .  A
C673        C678   1.380       .  A
C673        F680   1.351       .  S
C674        C675   1.411       .  A
C675        C676   1.396       .  A
C675        F682   1.358       .  S
C676        C677   1.402       .  A
C676        F681   1.358       .  S
C677        C678   1.395       .  A
C678        F679   1.360       .  S
C683        C684   1.398       .  A
C683        C688   1.391       .  A
C683        F690   1.358       .  S
C684        C685   1.398       .  A
C685        C686   1.389       .  A
C685        F692   1.357       .  S
C686        C687   1.405       .  A
C686        F691   1.358       .  S
C687        C688   1.408       .  A
C688        F689   1.358       .  S
C693        C694   1.409       .  A
C693        C698   1.384       .  A
C693        F700   1.354       .  S
C694        C695   1.396       .  A
C695        C696   1.388       .  A
C695        F702   1.358       .  S
C696        C697   1.409       .  A
C696        F701   1.358       .  S
C697        C698   1.392       .  A
C698        F699   1.359       .  S
C703        C704   1.397       .  A
C703        C708   1.388       .  A
C703        F710   1.358       .  S
C704        C705   1.413       .  A
C705        C706   1.388       .  A
C705        F712   1.359       .  S
C706        C707   1.396       .  A
C706        F711   1.358       .  S
C707        C708   1.409       .  A
C708        F709   1.353       .  S
C713        C714   1.404       .  A
C713        C718   1.394       .  A
C713        F720   1.358       .  S
C714        C715   1.409       .  A
C715        C716   1.382       .  A
C715        F722   1.355       .  S
C716        C717   1.399       .  A
C716        F721   1.359       .  S
C717        C718   1.409       .  A
C718        F719   1.358       .  S
C723        C724   1.401       .  A
C723        C728   1.390       .  A
C723        F730   1.358       .  S
C724        C725   1.393       .  A
C725        C726   1.382       .  A
C725        F732   1.359       .  S
C726        C727   1.408       .  A
C726        F731   1.353       .  S
C727        C728   1.404       .  A
C728        F729   1.358       .  S
C733        C734   1.394       .  A
C733        C738   1.387       .  A
C733        F740   1.359       .  S
C734        C735   1.402       .  A
C735        C736   1.393       .  A
C735        F742   1.358       .  S
C736        C737   1.403       .  A
C736        F741   1.358       .  S
C737        C738   1.412       .  A
C738        F739   1.358       .  S
C743        C744   1.396       .  A
C743        C748   1.392       .  A
C743        F750   1.358       .  S
C744        C745   1.408       .  A
C745        C746   1.388       .  A
C745        F752   1.359       .  S
C746        C747   1.394       .  A
C746        F751   1.358       .  S
C747        C748   1.405       .  A
C748        F749   1.358       .  S
C753        C754   1.393       .  A
C753        C758   1.382       .  A
C753        F760   1.359       .  S
C754        C755   1.401       .  A
C755        C756   1.394       .  A
C755        F762   1.358       .  S
C756        C757   1.404       .  A
C756        F761   1.358       .  S
C757        C758   1.407       .  A
C758        F759   1.353       .  S
C763        C764   1.391       .  A
C763        C768   1.384       .  A
C763        F770   1.359       .  S
C764        C765   1.402       .  A
C765        C766   1.391       .  A
C765        F772   1.354       .  S
C766        C767   1.399       .  A
C766        F771   1.358       .  S
C767        C768   1.410       .  A
C768        F769   1.356       .  S
C773        C774   1.402       .  A
C773        C778   1.391       .  A
C773        F780   1.358       .  S
C774        C775   1.410       .  A
C775        C776   1.384       .  A
C775        F782   1.357       .  S
C776        C777   1.400       .  A
C776        F781   1.359       .  S
C777        C778   1.411       .  A
C778        F779   1.355       .  S
C783        C784   1.409       .  A
C783        C788   1.390       .  A
C783        F790   1.358       .  S
C784        C785   1.403       .  A
C785        C786   1.391       .  A
C785        F792   1.358       .  S
C786        C787   1.400       .  A
C786        F791   1.356       .  S
C787        C788   1.397       .  A
C788        F789   1.358       .  S
C793        C794   1.410       .  A
C793        C798   1.388       .  A
C793        F800   1.358       .  S
C794        C795   1.407       .  A
C795        C796   1.390       .  A
C795        F802   1.358       .  S
C796        C797   1.400       .  A
C796        F801   1.358       .  S
C797        C798   1.398       .  A
C798        F799   1.359       .  S
C803        C804   1.398       .  A
C803        C808   1.385       .  A
C803        F810   1.358       .  S
C804        C805   1.408       .  A
C805        C806   1.392       .  A
C805        F812   1.358       .  S
C806        C807   1.400       .  A
C806        F811   1.358       .  S
C807        C808   1.407       .  A
C808        F809   1.358       .  S
C813        C814   1.397       .  A
C813        C818   1.390       .  A
C813        F820   1.358       .  S
C814        C815   1.407       .  A
C815        C816   1.387       .  A
C815        F822   1.358       .  S
C816        C817   1.397       .  A
C816        F821   1.358       .  S
C817        C818   1.409       .  A
C818        F819   1.358       .  S
C823        C824   1.410       .  A
C823        C828   1.385       .  A
C823        F830   1.359       .  S
C824        C825   1.402       .  A
C825        C826   1.393       .  A
C825        F832   1.358       .  S
C826        C827   1.409       .  A
C826        F831   1.358       .  S
C827        C828   1.399       .  A
C828        F829   1.359       .  S
C833        C834   1.410       .  A
C833        C838   1.389       .  A
C833        F840   1.358       .  S
C834        C835   1.402       .  A
C835        C836   1.389       .  A
C835        F842   1.359       .  S
C836        C837   1.412       .  A
C836        F841   1.352       .  S
C837        C838   1.405       .  A
C838        F839   1.359       .  S
C843        C844   1.408       .  A
C843        C848   1.387       .  A
C843        F850   1.358       .  S
C844        C845   1.405       .  A
C845        C846   1.392       .  A
C845        F852   1.358       .  S
C846        C847   1.400       .  A
C846        F851   1.357       .  S
C847        C848   1.396       .  A
C848        F849   1.353       .  S
C853        C854   1.402       .  A
C853        C858   1.391       .  A
C853        F860   1.357       .  S
C854        C855   1.407       .  A
C855        C856   1.388       .  A
C855        F862   1.356       .  S
C856        C857   1.402       .  A
C856        F861   1.359       .  S
C857        C858   1.409       .  A
C858        F859   1.358       .  S
C863        C864   1.404       .  A
C863        C868   1.395       .  A
C863        F870   1.358       .  S
C864        C865   1.410       .  A
C865        C866   1.384       .  A
C865        F872   1.354       .  S
C866        C867   1.392       .  A
C866        F871   1.359       .  S
C867        C868   1.403       .  A
C868        F869   1.358       .  S
C873        C874   1.403       .  A
C873        C878   1.391       .  A
C873        F880   1.358       .  S
C874        C875   1.406       .  A
C875        C876   1.386       .  A
C875        F882   1.356       .  S
C876        C877   1.401       .  A
C876        F881   1.359       .  S
C877        C878   1.408       .  A
C878        F879   1.358       .  S
C883        C884   1.395       .  A
C883        C888   1.389       .  A
C883        F890   1.358       .  S
C884        C885   1.403       .  A
C885        C886   1.388       .  A
C885        F892   1.357       .  S
C886        C887   1.395       .  A
C886        F891   1.358       .  S
C887        C888   1.405       .  A
C888        F889   1.359       .  S
C893        C894   1.410       .  A
C893        C898   1.390       .  A
C893        F900   1.358       .  S
C894        C895   1.399       .  A
C895        C896   1.387       .  A
C895        F902   1.358       .  S
C896        C897   1.409       .  A
C896        F901   1.359       .  S
C897        C898   1.400       .  A
C898        F899   1.358       .  S
C903        C904   1.395       .  A
C903        C908   1.384       .  A
C903        F910   1.358       .  S
C904        C905   1.409       .  A
C905        C906   1.390       .  A
C905        F912   1.358       .  S
C906        C907   1.399       .  A
C906        F911   1.358       .  S
C907        C908   1.408       .  A
C908        F909   1.353       .  S
C913        C914   1.402       .  A
C913        C918   1.409       .  A
C913        F920   1.357       .  S
C914        C915   1.415       .  A
C915        C916   1.411       .  A
C915        F922   1.358       .  S
C916        C917   1.405       .  A
C916        F921   1.357       .  S
C917        C918   1.417       .  A
C918        F919   1.357       .  S
C923        C924   1.407       .  A
C923        C928   1.408       .  A
C923        F930   1.357       .  S
C924        C925   1.408       .  A
C925        C926   1.402       .  A
C925        F932   1.358       .  S
C926        C927   1.405       .  A
C926        F931   1.358       .  S
C927        C928   1.408       .  A
C928        F929   1.358       .  S
C933        C934   1.406       .  A
C933        C938   1.412       .  A
C933        F940   1.357       .  S
C934        C935   1.418       .  A
C935        C936   1.410       .  A
C935        F942   1.358       .  S
C936        C937   1.403       .  A
C936        F941   1.357       .  S
C937        C938   1.415       .  A
C938        F939   1.358       .  S
C943        C944   1.410       .  A
C943        C948   1.409       .  A
C943        F950   1.358       .  S
C944        C945   1.397       .  A
C945        C946   1.400       .  A
C945        F952   1.358       .  S
C946        C947   1.414       .  A
C946        F951   1.353       .  S
C947        C948   1.408       .  A
C948        F949   1.357       .  S
C953        C954   1.410       .  A
C953        C958   1.386       .  A
C953        F960   1.357       .  S
C954        C955   1.402       .  A
C955        C956   1.393       .  A
C955        F962   1.358       .  S
C956        C957   1.411       .  A
C956        F961   1.355       .  S
C957        C958   1.400       .  A
C958        F959   1.359       .  S
C963        C964   1.406       .  A
C963        C968   1.391       .  A
C963        F970   1.358       .  S
C964        C965   1.413       .  A
C965        C966   1.386       .  A
C965        F972   1.358       .  S
C966        C967   1.395       .  A
C966        F971   1.358       .  S
C967        C968   1.400       .  A
C968        F969   1.357       .  S
C973        C974   1.405       .  A
C973        C978   1.411       .  A
C973        F980   1.357       .  S
C974        C975   1.413       .  A
C975        C976   1.414       .  A
C975        F982   1.358       .  S
C976        C977   1.408       .  A
C976        F981   1.357       .  S
C977        C978   1.414       .  A
C978        F979   1.358       .  S
C983        C984   1.406       .  A
C983        C988   1.411       .  A
C983        F990   1.357       .  S
C984        C985   1.424       .  A
C985        C986   1.410       .  A
C985        F992   1.358       .  S
C986        C987   1.403       .  A
C986        F991   1.358       .  S
C987        C988   1.420       .  A
C988        F989   1.358       .  S
C993        C994   1.408       .  A
C993        C998   1.406       .  A
C993       F1000   1.358       .  S
C994        C995   1.401       .  A
C995        C996   1.403       .  A
C995       F1002   1.358       .  S
C996        C997   1.414       .  A
C996       F1001   1.358       .  S
C997        C998   1.408       .  A
C998        F999   1.358       .  S
C1003      C1004   1.408       .  A
C1003      C1008   1.406       .  A
C1003      F1010   1.358       .  S
C1004      C1005   1.399       .  A
C1005      C1006   1.401       .  A
C1005      F1012   1.358       .  S
C1006      C1007   1.416       .  A
C1006      F1011   1.358       .  S
C1007      C1008   1.408       .  A
C1008      F1009   1.358       .  S
C1013      C1014   1.403       .  A
C1013      C1018   1.392       .  A
C1013      F1020   1.358       .  S
C1014      C1015   1.408       .  A
C1015      C1016   1.387       .  A
C1015      F1022   1.357       .  S
C1016      C1017   1.403       .  A
C1016      F1021   1.359       .  S
C1017      C1018   1.411       .  A
C1018      F1019   1.358       .  S
C1023      C1024   1.397       .  A
C1023      C1028   1.388       .  A
C1023      F1030   1.359       .  S
C1024      C1025   1.401       .  A
C1025      C1026   1.392       .  A
C1025      F1032   1.357       .  S
C1026      C1027   1.404       .  A
C1026      F1031   1.358       .  S
C1027      C1028   1.409       .  A
C1028      F1029   1.358       .  S
C1033      C1034   1.406       .  A
C1033      C1038   1.413       .  A
C1033      F1040   1.357       .  S
C1034      C1035   1.426       .  A
C1035      C1036   1.408       .  A
C1035      F1042   1.358       .  S
C1036      C1037   1.400       .  A
C1036      F1041   1.358       .  S
C1037      C1038   1.420       .  A
C1038      F1039   1.358       .  S
C1043      C1044   1.424       .  A
C1043      C1048   1.404       .  A
C1043      F1050   1.358       .  S
C1044      C1045   1.406       .  A
C1045      C1046   1.407       .  A
C1045      F1052   1.357       .  S
C1046      C1047   1.414       .  A
C1046      F1051   1.358       .  S
C1047      C1048   1.398       .  A
C1048      F1049   1.358       .  S
C1053      C1054   1.401       .  A
C1053      C1058   1.410       .  A
C1053      F1060   1.357       .  S
C1054      C1055   1.418       .  A
C1055      C1056   1.414       .  A
C1055      F1062   1.358       .  S
C1056      C1057   1.406       .  A
C1056      F1061   1.357       .  S
C1057      C1058   1.422       .  A
C1058      F1059   1.358       .  S
C1063      C1064   1.407       .  A
C1063      C1068   1.406       .  A
C1063      F1070   1.357       .  S
C1064      C1065   1.423       .  A
C1065      C1066   1.405       .  A
C1065      F1072   1.358       .  S
C1066      C1067   1.397       .  A
C1066      F1071   1.358       .  S
C1067      C1068   1.411       .  A
C1068      F1069   1.357       .  S
C1073      C1074   1.399       .  A
C1073      C1078   1.392       .  A
C1073      F1080   1.358       .  S
C1074      C1075   1.408       .  A
C1075      C1076   1.383       .  A
C1075      F1082   1.359       .  S
C1076      C1077   1.398       .  A
C1076      F1081   1.359       .  S
C1077      C1078   1.410       .  A
C1078      F1079   1.358       .  S
C1083      C1084   1.409       .  A
C1083      C1088   1.388       .  A
C1083      F1090   1.358       .  S
C1084      C1085   1.396       .  A
C1085      C1086   1.388       .  A
C1085      F1092   1.358       .  S
C1086      C1087   1.410       .  A
C1086      F1091   1.357       .  S
C1087      C1088   1.398       .  A
C1088      F1089   1.358       .  S
C1093      C1094   1.403       .  A
C1093      C1098   1.406       .  A
C1093      F1100   1.358       .  S
C1094      C1095   1.419       .  A
C1095      C1096   1.404       .  A
C1095      F1102   1.358       .  S
C1096      C1097   1.402       .  A
C1096      F1101   1.358       .  S
C1097      C1098   1.418       .  A
C1098      F1099   1.358       .  S
C1103      C1104   1.408       .  A
C1103      C1108   1.414       .  A
C1103      F1110   1.357       .  S
C1104      C1105   1.412       .  A
C1105      C1106   1.411       .  A
C1105      F1112   1.358       .  S
C1106      C1107   1.407       .  A
C1106      F1111   1.357       .  S
C1107      C1108   1.411       .  A
C1108      F1109   1.357       .  S
C1113      C1114   1.402       .  A
C1113      C1118   1.411       .  A
C1113      F1120   1.357       .  S
C1114      C1115   1.419       .  A
C1115      C1116   1.412       .  A
C1115      F1122   1.357       .  S
C1116      C1117   1.405       .  A
C1116      F1121   1.357       .  S
C1117      C1118   1.424       .  A
C1118      F1119   1.358       .  S
C1123      C1124   1.399       .  A
C1123      C1128   1.405       .  A
C1123      F1130   1.358       .  S
C1124      C1125   1.414       .  A
C1125      C1126   1.404       .  A
C1125      F1132   1.358       .  S
C1126      C1127   1.406       .  A
C1126      F1131   1.357       .  S
C1127      C1128   1.422       .  A
C1128      F1129   1.358       .  S
C1133      C1134   1.410       .  A
C1133      C1138   1.390       .  A
C1133      F1140   1.358       .  S
C1134      C1135   1.401       .  A
C1135      C1136   1.387       .  A
C1135      F1142   1.358       .  S
C1136      C1137   1.413       .  A
C1136      F1141   1.352       .  S
C1137      C1138   1.407       .  A
C1138      F1139   1.359       .  S
C1143      C1144   1.401       .  A
C1143      C1148   1.391       .  A
C1143      F1150   1.358       .  S
C1144      C1145   1.412       .  A
C1145      C1146   1.384       .  A
C1145      F1152   1.359       .  S
C1146      C1147   1.400       .  A
C1146      F1151   1.359       .  S
C1147      C1148   1.411       .  A
C1148      F1149   1.358       .  S
C1153      C1154   1.404       .  A
C1153      C1158   1.404       .  A
C1153      F1160   1.358       .  S
C1154      C1155   1.409       .  A
C1155      C1156   1.410       .  A
C1155      F1162   1.358       .  S
C1156      C1157   1.408       .  A
C1156      F1161   1.358       .  S
C1157      C1158   1.411       .  A
C1158      F1159   1.357       .  S
C1163      C1164   1.401       .  A
C1163      C1168   1.407       .  A
C1163      F1170   1.358       .  S
C1164      C1165   1.418       .  A
C1165      C1166   1.413       .  A
C1165      F1172   1.358       .  S
C1166      C1167   1.406       .  A
C1166      F1171   1.357       .  S
C1167      C1168   1.421       .  A
C1168      F1169   1.358       .  S
C1173      C1174   1.420       .  A
C1173      C1178   1.403       .  A
C1173      F1180   1.358       .  S
C1174      C1175   1.403       .  A
C1175      C1176   1.407       .  A
C1175      F1182   1.357       .  S
C1176      C1177   1.417       .  A
C1176      F1181   1.358       .  S
C1177      C1178   1.400       .  A
C1178      F1179   1.358       .  S
C1183      C1184   1.408       .  A
C1183      C1188   1.412       .  A
C1183      F1190   1.357       .  S
C1184      C1185   1.411       .  A
C1185      C1186   1.409       .  A
C1185      F1192   1.358       .  S
C1186      C1187   1.406       .  A
C1186      F1191   1.358       .  S
C1187      C1188   1.411       .  A
C1188      F1189   1.358       .  S
C1193      C1194   1.393       .  A
C1193      C1198   1.384       .  A
C1193      F1200   1.358       .  S
C1194      C1195   1.404       .  A
C1195      C1196   1.394       .  A
C1195      F1202   1.358       .  S
C1196      C1197   1.400       .  A
C1196      F1201   1.358       .  S
C1197      C1198   1.407       .  A
C1198      F1199   1.357       .  S
C1203      C1204   1.396       .  A
C1203      C1208   1.384       .  A
C1203      F1210   1.359       .  S
C1204      C1205   1.402       .  A
C1205      C1206   1.394       .  A
C1205      F1212   1.358       .  S
C1206      C1207   1.405       .  A
C1206      F1211   1.358       .  S
C1207      C1208   1.407       .  A
C1208      F1209   1.354       .  S
C1213      C1214   1.423       .  A
C1213      C1218   1.412       .  A
C1213      F1220   1.358       .  S
C1214      C1215   1.403       .  A
C1215      C1216   1.410       .  A
C1215      F1222   1.357       .  S
C1216      C1217   1.426       .  A
C1216      F1221   1.358       .  S
C1217      C1218   1.405       .  A
C1218      F1219   1.357       .  S
C1223      C1224   1.418       .  A
C1223      C1228   1.406       .  A
C1223      F1230   1.358       .  S
C1224      C1225   1.401       .  A
C1225      C1226   1.406       .  A
C1225      F1232   1.358       .  S
C1226      C1227   1.421       .  A
C1226      F1231   1.358       .  S
C1227      C1228   1.403       .  A
C1228      F1229   1.358       .  S
C1233      C1234   1.426       .  A
C1233      C1238   1.410       .  A
C1233      F1240   1.358       .  S
C1234      C1235   1.405       .  A
C1235      C1236   1.412       .  A
C1235      F1242   1.357       .  S
C1236      C1237   1.422       .  A
C1236      F1241   1.358       .  S
C1237      C1238   1.402       .  A
C1238      F1239   1.357       .  S
C1243      C1244   1.408       .  A
C1243      C1248   1.410       .  A
C1243      F1250   1.358       .  S
C1244      C1245   1.408       .  A
C1245      C1246   1.405       .  A
C1245      F1252   1.358       .  S
C1246      C1247   1.406       .  A
C1246      F1251   1.358       .  S
C1247      C1248   1.409       .  A
C1248      F1249   1.358       .  S
C1253      C1254   1.394       .  A
C1253      C1258   1.387       .  A
C1253      F1260   1.359       .  S
C1254      C1255   1.405       .  A
C1255      C1256   1.390       .  A
C1255      F1262   1.356       .  S
C1256      C1257   1.398       .  A
C1256      F1261   1.358       .  S
C1257      C1258   1.408       .  A
C1258      F1259   1.355       .  S
C1263      C1264   1.396       .  A
C1263      C1268   1.386       .  A
C1263      F1270   1.359       .  S
C1264      C1265   1.400       .  A
C1265      C1266   1.393       .  A
C1265      F1272   1.358       .  S
C1266      C1267   1.408       .  A
C1266      F1271   1.358       .  S
C1267      C1268   1.414       .  A
C1268      F1269   1.358       .  S
C1273      C1274   1.408       .  A
C1273      C1278   1.409       .  A
C1273      F1280   1.358       .  S
C1274      C1275   1.404       .  A
C1275      C1276   1.403       .  A
C1275      F1282   1.358       .  S
C1276      C1277   1.409       .  A
C1276      F1281   1.356       .  S
C1277      C1278   1.408       .  A
C1278      F1279   1.358       .  S
C1283      C1284   1.423       .  A
C1283      C1288   1.408       .  A
C1283      F1290   1.358       .  S
C1284      C1285   1.406       .  A
C1285      C1286   1.411       .  A
C1285      F1292   1.357       .  S
C1286      C1287   1.419       .  A
C1286      F1291   1.358       .  S
C1287      C1288   1.402       .  A
C1288      F1289   1.358       .  S
C1293      C1294   1.407       .  A
C1293      C1298   1.401       .  A
C1293      F1300   1.358       .  S
C1294      C1295   1.408       .  A
C1295      C1296   1.407       .  A
C1295      F1302   1.358       .  S
C1296      C1297   1.407       .  A
C1296      F1301   1.358       .  S
C1297      C1298   1.405       .  A
C1298      F1299   1.358       .  S
C1303      C1304   1.401       .  A
C1303      C1308   1.409       .  A
C1303      F1310   1.357       .  S
C1304      C1305   1.417       .  A
C1305      C1306   1.410       .  A
C1305      F1312   1.358       .  S
C1306      C1307   1.406       .  A
C1306      F1311   1.357       .  S
C1307      C1308   1.422       .  A
C1308      F1309   1.358       .  S
C1313      C1314   1.408       .  A
C1313      C1318   1.383       .  A
C1313      F1320   1.357       .  S
C1314      C1315   1.403       .  A
C1315      C1316   1.395       .  A
C1315      F1322   1.358       .  S
C1316      C1317   1.408       .  A
C1316      F1321   1.358       .  S
C1317      C1318   1.399       .  A
C1318      F1319   1.359       .  S
C1323      C1324   1.407       .  A
C1323      C1328   1.382       .  A
C1323      F1330   1.354       .  S
C1324      C1325   1.404       .  A
C1325      C1326   1.395       .  A
C1325      F1332   1.358       .  S
C1326      C1327   1.402       .  A
C1326      F1331   1.357       .  S
C1327      C1328   1.394       .  A
C1328      F1329   1.357       .  S
C1333      C1334   1.413       .  A
C1333      C1338   1.412       .  A
C1333      F1340   1.356       .  S
C1334      C1335   1.403       .  A
C1335      C1336   1.408       .  A
C1335      F1342   1.357       .  S
C1336      C1337   1.414       .  A
C1336      F1341   1.357       .  S
C1337      C1338   1.406       .  A
C1338      F1339   1.357       .  S
C1343      C1344   1.407       .  A
C1343      C1348   1.406       .  A
C1343      F1350   1.357       .  S
C1344      C1345   1.409       .  A
C1345      C1346   1.404       .  A
C1345      F1352   1.358       .  S
C1346      C1347   1.404       .  A
C1346      F1351   1.358       .  S
C1347      C1348   1.408       .  A
C1348      F1349   1.358       .  S
C1353      C1354   1.416       .  A
C1353      C1358   1.411       .  A
C1353      F1360   1.357       .  S
C1354      C1355   1.402       .  A
C1355      C1356   1.409       .  A
C1355      F1362   1.357       .  S
C1356      C1357   1.419       .  A
C1356      F1361   1.358       .  S
C1357      C1358   1.405       .  A
C1358      F1359   1.357       .  S
C1363      C1364   1.408       .  A
C1363      C1368   1.405       .  A
C1363      F1370   1.357       .  S
C1364      C1365   1.419       .  A
C1365      C1366   1.403       .  A
C1365      F1372   1.358       .  S
C1366      C1367   1.398       .  A
C1366      F1371   1.358       .  S
C1367      C1368   1.408       .  A
C1368      F1369   1.358       .  S
C1373      C1374   1.402       .  A
C1373      C1378   1.391       .  A
C1373      F1380   1.357       .  S
C1374      C1375   1.411       .  A
C1375      C1376   1.387       .  A
C1375      F1382   1.359       .  S
C1376      C1377   1.401       .  A
C1376      F1381   1.359       .  S
C1377      C1378   1.410       .  A
C1378      F1379   1.357       .  S
C1383      C1384   1.395       .  A
C1383      C1388   1.384       .  A
C1383      F1390   1.358       .  S
C1384      C1385   1.410       .  A
C1385      C1386   1.391       .  A
C1385      F1392   1.359       .  S
C1386      C1387   1.398       .  A
C1386      F1391   1.358       .  S
C1387      C1388   1.409       .  A
C1388      F1389   1.355       .  S
C1393      C1394   1.402       .  A
C1393      C1398   1.409       .  A
C1393      F1400   1.357       .  S
C1394      C1395   1.415       .  A
C1395      C1396   1.411       .  A
C1395      F1402   1.358       .  S
C1396      C1397   1.406       .  A
C1396      F1401   1.357       .  S
C1397      C1398   1.419       .  A
C1398      F1399   1.358       .  S
C1403      C1404   1.407       .  A
C1403      C1408   1.406       .  A
C1403      F1410   1.357       .  S
C1404      C1405   1.424       .  A
C1405      C1406   1.404       .  A
C1405      F1412   1.358       .  S
C1406      C1407   1.397       .  A
C1406      F1411   1.358       .  S
C1407      C1408   1.412       .  A
C1408      F1409   1.358       .  S
C1413      C1414   1.415       .  A
C1413      C1418   1.411       .  A
C1413      F1420   1.358       .  S
C1414      C1415   1.407       .  A
C1415      C1416   1.413       .  A
C1415      F1422   1.357       .  S
C1416      C1417   1.413       .  A
C1416      F1421   1.358       .  S
C1417      C1418   1.405       .  A
C1418      F1419   1.357       .  S
C1423      C1424   1.406       .  A
C1423      C1428   1.405       .  A
C1423      F1430   1.357       .  S
C1424      C1425   1.423       .  A
C1425      C1426   1.405       .  A
C1425      F1432   1.358       .  S
C1426      C1427   1.398       .  A
C1426      F1431   1.358       .  S
C1427      C1428   1.413       .  A
C1428      F1429   1.358       .  S
C1433      C1434   1.412       .  A
C1433      C1438   1.386       .  A
C1433      F1440   1.359       .  S
C1434      C1435   1.403       .  A
C1435      C1436   1.393       .  A
C1435      F1442   1.358       .  S
C1436      C1437   1.402       .  A
C1436      F1441   1.358       .  S
C1437      C1438   1.393       .  A
C1438      F1439   1.359       .  S
C1443      C1444   1.393       .  A
C1443      C1448   1.387       .  A
C1443      F1450   1.358       .  S
C1444      C1445   1.404       .  A
C1445      C1446   1.391       .  A
C1445      F1452   1.358       .  S
C1446      C1447   1.396       .  A
C1446      F1451   1.357       .  S
C1447      C1448   1.408       .  A
C1448      F1449   1.358       .  S
C1453      C1454   1.401       .  A
C1453      C1458   1.408       .  A
C1453      F1460   1.358       .  S
C1454      C1455   1.418       .  A
C1455      C1456   1.410       .  A
C1455      F1462   1.358       .  S
C1456      C1457   1.405       .  A
C1456      F1461   1.357       .  S
C1457      C1458   1.422       .  A
C1458      F1459   1.358       .  S
C1463      C1464   1.407       .  A
C1463      C1468   1.405       .  A
C1463      F1470   1.357       .  S
C1464      C1465   1.423       .  A
C1465      C1466   1.403       .  A
C1465      F1472   1.358       .  S
C1466      C1467   1.397       .  A
C1466      F1471   1.358       .  S
C1467      C1468   1.411       .  A
C1468      F1469   1.358       .  S
C1473      C1474   1.406       .  A
C1473      C1478   1.412       .  A
C1473      F1480   1.357       .  S
C1474      C1475   1.414       .  A
C1475      C1476   1.409       .  A
C1475      F1482   1.358       .  S
C1476      C1477   1.404       .  A
C1476      F1481   1.358       .  S
C1477      C1478   1.413       .  A
C1478      F1479   1.358       .  S
C1483      C1484   1.418       .  A
C1483      C1488   1.405       .  A
C1483      F1490   1.358       .  S
C1484      C1485   1.401       .  A
C1485      C1486   1.405       .  A
C1485      F1492   1.358       .  S
C1486      C1487   1.420       .  A
C1486      F1491   1.358       .  S
C1487      C1488   1.403       .  A
C1488      F1489   1.358       .  S
C1493      C1494   1.411       .  A
C1493      C1498   1.393       .  A
C1493      F1500   1.358       .  S
C1494      C1495   1.412       .  A
C1495      C1496   1.383       .  A
C1495      F1502   1.353       .  S
C1496      C1497   1.397       .  A
C1496      F1501   1.360       .  S
C1497      C1498   1.400       .  A
C1498      F1499   1.358       .  S
C1503      C1504   1.407       .  A
C1503      C1508   1.389       .  A
C1503      F1510   1.358       .  S
C1504      C1505   1.397       .  A
C1505      C1506   1.387       .  A
C1505      F1512   1.358       .  S
C1506      C1507   1.409       .  A
C1506      F1511   1.359       .  S
C1507      C1508   1.398       .  A
C1508      F1509   1.358       .  S
C1513      C1514   1.397       .  A
C1513      C1518   1.402       .  A
C1513      F1520   1.358       .  S
C1514      C1515   1.410       .  A
C1515      C1516   1.407       .  A
C1515      F1522   1.358       .  S
C1516      C1517   1.408       .  A
C1516      F1521   1.357       .  S
C1517      C1518   1.421       .  A
C1518      F1519   1.357       .  S
C1523      C1524   1.418       .  A
C1523      C1528   1.412       .  A
C1523      F1530   1.358       .  S
C1524      C1525   1.400       .  A
C1525      C1526   1.407       .  A
C1525      F1532   1.358       .  S
C1526      C1527   1.422       .  A
C1526      F1531   1.358       .  S
C1527      C1528   1.405       .  A
C1528      F1529   1.357       .  S
C1533      C1534   1.422       .  A
C1533      C1538   1.405       .  A
C1533      F1540   1.358       .  S
C1534      C1535   1.405       .  A
C1535      C1536   1.406       .  A
C1535      F1542   1.357       .  S
C1536      C1537   1.415       .  A
C1536      F1541   1.358       .  S
C1537      C1538   1.399       .  A
C1538      F1539   1.358       .  S
C1543      C1544   1.401       .  A
C1543      C1548   1.408       .  A
C1543      F1550   1.358       .  S
C1544      C1545   1.417       .  A
C1545      C1546   1.410       .  A
C1545      F1552   1.358       .  S
C1546      C1547   1.405       .  A
C1546      F1551   1.357       .  S
C1547      C1548   1.421       .  A
C1548      F1549   1.358       .  S
C1553      C1554   1.394       .  A
C1553      C1558   1.386       .  A
C1553      F1560   1.358       .  S
C1554      C1555   1.401       .  A
C1555      C1556   1.389       .  A
C1555      F1562   1.358       .  S
C1556      C1557   1.398       .  A
C1556      F1561   1.358       .  S
C1557      C1558   1.405       .  A
C1558      F1559   1.357       .  S
C1563      C1564   1.401       .  A
C1563      C1568   1.391       .  A
C1563      F1570   1.358       .  S
C1564      C1565   1.396       .  A
C1565      C1566   1.388       .  A
C1565      F1572   1.358       .  S
C1566      C1567   1.407       .  A
C1566      F1571   1.359       .  S
C1567      C1568   1.401       .  A
C1568      F1569   1.358       .  S
C1573      C1574   1.405       .  A
C1573      C1578   1.411       .  A
C1573      F1580   1.357       .  S
C1574      C1575   1.412       .  A
C1575      C1576   1.412       .  A
C1575      F1582   1.356       .  S
C1576      C1577   1.405       .  A
C1576      F1581   1.357       .  S
C1577      C1578   1.414       .  A
C1578      F1579   1.358       .  S
C1583      C1584   1.423       .  A
C1583      C1588   1.411       .  A
C1583      F1590   1.358       .  S
C1584      C1585   1.407       .  A
C1585      C1586   1.414       .  A
C1585      F1592   1.357       .  S
C1586      C1587   1.419       .  A
C1586      F1591   1.357       .  S
C1587      C1588   1.403       .  A
C1588      F1589   1.357       .  S
C1593      C1594   1.407       .  A
C1593      C1598   1.409       .  A
C1593      F1600   1.357       .  S
C1594      C1595   1.410       .  A
C1595      C1596   1.405       .  A
C1595      F1602   1.358       .  S
C1596      C1597   1.405       .  A
C1596      F1601   1.358       .  S
C1597      C1598   1.409       .  A
C1598      F1599   1.357       .  S
C1603      C1604   1.412       .  A
C1603      C1608   1.407       .  A
C1603      F1610   1.358       .  S
C1604      C1605   1.398       .  A
C1605      C1606   1.405       .  A
C1605      F1612   1.358       .  S
C1606      C1607   1.423       .  A
C1606      F1611   1.358       .  S
C1607      C1608   1.408       .  A
C1608      F1609   1.357       .  S
C1613      C1614   1.409       .  A
C1613      C1618   1.384       .  A
C1613      F1620   1.359       .  S
C1614      C1615   1.402       .  A
C1615      C1616   1.393       .  A
C1615      F1622   1.358       .  S
C1616      C1617   1.408       .  A
C1616      F1621   1.358       .  S
C1617      C1618   1.400       .  A
C1618      F1619   1.359       .  S
C1623      C1624   1.398       .  A
C1623      C1628   1.388       .  A
C1623      F1630   1.358       .  S
C1624      C1625   1.408       .  A
C1625      C1626   1.392       .  A
C1625      F1632   1.358       .  S
C1626      C1627   1.402       .  A
C1626      F1631   1.356       .  S
C1627      C1628   1.410       .  A
C1628      F1629   1.359       .  S
