geometry optimzed in LAMMPS
_audit_creation_date              2020-11-30 
_audit_creation_method            'lammps2cif' 
_symmetry_space_group_name_H-M    'P1' 
_symmetry_Int_Tables_number       1 
_symmetry_cell_setting            triclinic 
loop_ 
_symmetry_equiv_pos_as_xyz 
  x,y,z 
_cell_length_a                    52.20525994 
_cell_length_b                    52.063467961392924 
_cell_length_c                    38.120498903848855 
_cell_angle_alpha                 89.94186230061152 
_cell_angle_beta                  90.10878515518648 
_cell_angle_gamma                 121.49987655286169 
loop_ 
_atom_site_label 
_atom_site_type_symbol 
_atom_site_fract_x 
_atom_site_fract_y 
_atom_site_fract_z 
_atom_site_charge 
C1          C  0.33405499  0.16952987  0.71630345     0.45700
H2          H  0.33515483  0.17130785  0.68724101    -0.03400
C3          C  0.33252451  0.16596242  0.78449094     0.45700
H4          H  0.33162661  0.16468682  0.81358837    -0.03400
C5          C  0.35072143  0.20024232  0.73468011    -0.17100
C6          C  0.30202566  0.15342441  0.73127041    -0.16800
C7          C  0.34823052  0.15227185  0.73107130    -0.17200
C8          C  0.35008969  0.19842168  0.77051291    -0.17200
C9          C  0.30127629  0.15193518  0.76739969    -0.16700
C10         C  0.34711272  0.14995545  0.76718973    -0.17100
C11         C  0.16171337  0.33999508  0.28276887     0.45700
H12         H  0.16213553  0.34094880  0.31187750    -0.03400
C13         C  0.16107611  0.33901148  0.21450194     0.45700
H14         H  0.16068030  0.33845387  0.18535969    -0.03400
C15         C  0.19324452  0.35601235  0.26614407    -0.17100
C16         C  0.14525217  0.30782835  0.26736838    -0.16800
C17         C  0.14603863  0.35523072  0.26621309    -0.17200
C18         C  0.19286627  0.35522231  0.23010407    -0.17200
C19         C  0.14512966  0.30756361  0.23119043    -0.16700
C20         C  0.14569753  0.35455095  0.23025459    -0.17100
O21         O  0.48717165  0.44605833  0.95362229    -0.78300
C22         C  0.06657110  0.03582382  0.94508893     0.82700
O23         O  0.01618027  0.48037760  0.07319852    -0.79400
O24         O  0.03710455  0.07632031  0.02265637    -0.80900
O25         O  0.44605440  0.01210854  0.95980062    -0.80700
O26         O  0.44501350  0.44696964  0.95266940    -0.79300
Zn27       Zn  0.01609523  0.48113892  0.98441993     1.55700
O28         O  0.49094109  0.05392539  0.95217899    -0.80700
Cd29       Cd  0.45486563  0.48254126  0.98542628     1.59700
Cd30       Cd  0.49818932  0.00421031  0.05302244     1.59600
O31         O  0.42584176  0.46534018  0.02757692    -0.80700
O32         O  0.49762741  0.00319701  0.00069378    -1.91200
Cd33       Cd  0.01961588  0.04538977  0.98157498     1.59900
O34         O  0.45563765  0.48419919  0.07423669    -0.80700
O35         O  0.05592537  0.05255359  0.95133026    -0.79300
C36         C  0.02617180  0.46536093  0.05865478     0.83200
C37         C  0.46012348  0.43522018  0.94344302     0.82900
O38         O  0.05370889  0.00881421  0.95649795    -0.78300
C39         C  0.46245530  0.03879920  0.94796105     0.83700
O40         O  0.02741226  0.46392573  0.02533945    -0.78400
C41         C  0.42957284  0.46871738  0.06066313     0.83800
C42         C  0.03680939  0.07351769  0.05596967     0.84100
O43         O  0.02324785  0.04779899  0.07079346    -0.80800
O44         O  0.05239947  0.00798969  0.54629331    -0.78300
C45         C  0.45953738  0.43569342  0.55947965     0.82700
O46         O  0.01523289  0.47684406  0.42856688    -0.79400
O47         O  0.42451659  0.46834290  0.47941028    -0.80900
O48         O  0.49699428  0.05746088  0.54629681    -0.80700
O49         O  0.05926099  0.05383026  0.54309515    -0.79300
Zn50       Zn  0.01518050  0.48073099  0.51797926     1.55700
O51         O  0.45144773  0.01596297  0.54802265    -0.80700
Cd52       Cd  0.02174433  0.04570624  0.51489847     1.59700
Cd53       Cd  0.49520899  0.00006745  0.44703389     1.59600
O54         O  0.03535803  0.07379680  0.47173365    -0.80700
O55         O  0.49723490  0.00258404  0.49975547    -1.91200
Cd56       Cd  0.45587161  0.48469293  0.51930168     1.59900
O57         O  0.01703562  0.04316504  0.42545549    -0.80700
O58         O  0.44507923  0.44841562  0.55145568    -0.79300
C59         C  0.02648374  0.46371720  0.44522800     0.83200
C60         C  0.06748882  0.03598914  0.55369187     0.82900
O61         O  0.48613882  0.44575936  0.54836478    -0.78300
C62         C  0.46969653  0.04338977  0.55642423     0.83700
O63         O  0.02738416  0.46380271  0.47862084    -0.78400
C64         C  0.03143625  0.06957962  0.43871615     0.83800
C65         C  0.42569628  0.46683588  0.44612725     0.84100
O66         O  0.45065049  0.47768491  0.42990630    -0.80800
C67         C  0.13243508  0.28043385  0.20875265    -0.03000
C68         C  0.11307845  0.27691142  0.18116512    -0.05600
C69         C  0.10188064  0.25215766  0.15872654    -0.20700
C70         C  0.10980763  0.23045109  0.16342394     0.25000
C71         C  0.12964001  0.23426852  0.19086280    -0.18200
C72         C  0.14086343  0.25910419  0.21331017    -0.08200
C73         C  0.09755195  0.20474319  0.13856200    -0.18500
C74         C  0.09488578  0.17823602  0.14630833    -0.23300
C75         C  0.08085361  0.15202327  0.12216500     0.27100
C76         C  0.06745191  0.12305292  0.13654855    -0.20100
C77         C  0.05330159  0.09767863  0.11500958    -0.09700
C78         C  0.05249585  0.10069596  0.07841560    -0.10300
C79         C  0.06665340  0.12975388  0.06383697    -0.03200
C80         C  0.08074796  0.15519908  0.08547819    -0.18300
H81         H  0.10657124  0.29332225  0.17706229     0.10800
H82         H  0.08687027  0.24990268  0.13766867     0.10900
H83         H  0.13713384  0.21863094  0.19462988     0.10500
H84         H  0.15647364  0.26194349  0.23387984     0.11600
H85         H  0.08865092  0.20720883  0.11387780     0.11700
H86         H  0.10107394  0.17468548  0.17224789     0.13600
H87         H  0.06749052  0.12000514  0.16468189     0.10100
H88         H  0.04285802  0.07566077  0.12713997     0.12200
H89         H  0.06675168  0.13285240  0.03572243     0.08900
H90         H  0.09175207  0.17722352  0.07335230     0.11600
C91         C  0.40294893  0.45397938  0.08386895    -0.03000
C92         C  0.40618329  0.45651858  0.12056370    -0.05600
C93         C  0.38094433  0.44229199  0.14231474    -0.20700
C94         C  0.35200220  0.42551167  0.12787824     0.25000
C95         C  0.34881530  0.42242711  0.09120452    -0.18200
C96         C  0.37398552  0.43662333  0.06948444    -0.08200
C97         C  0.32565806  0.41120160  0.15167550    -0.18500
C98         C  0.29835819  0.40530476  0.14167984    -0.23300
C99         C  0.27173807  0.39187849  0.16498696     0.27100
C100        C  0.24791404  0.39577822  0.15615687    -0.20100
C101        C  0.22231385  0.38357608  0.17709319    -0.09700
C102        C  0.22002874  0.36745533  0.20758490    -0.10300
C103        C  0.24329587  0.36236485  0.21568480    -0.03200
C104        C  0.26899120  0.37455322  0.19470263    -0.18300
H105        H  0.42820527  0.46948074  0.13251031     0.10800
H106        H  0.38400947  0.44470815  0.17049240     0.10900
H107        H  0.32698140  0.40871513  0.07909505     0.10500
H108        H  0.37071438  0.43382712  0.04137433     0.11600
H109        H  0.32941141  0.40718344  0.17860233     0.11700
H110        H  0.29558786  0.41216059  0.11574969     0.13600
H111        H  0.24916225  0.40849312  0.13300682     0.10100
H112        H  0.20446439  0.38696382  0.16938566     0.12200
H113        H  0.24146591  0.34860977  0.23795730     0.08900
H114        H  0.28624901  0.36983588  0.20150391     0.11600
C115        C  0.03625616  0.44906275  0.08117154    -0.03000
C116        C  0.03234676  0.44804569  0.11778174    -0.05600
C117        C  0.04185001  0.43273449  0.13912141    -0.20700
C118        C  0.05581161  0.41846754  0.12444071     0.25000
C119        C  0.05915542  0.41888829  0.08777714    -0.18200
C120        C  0.04950011  0.43404817  0.06639819    -0.08200
C121        C  0.06673512  0.40345195  0.14796613    -0.18500
C122        C  0.09102110  0.40193778  0.14018498    -0.23300
C123        C  0.10407940  0.38944830  0.16431582     0.27100
C124        C  0.13507341  0.40115078  0.16265320    -0.20100
C125        C  0.14848865  0.39003273  0.18452586    -0.09700
C126        C  0.13111305  0.36651850  0.20789257    -0.10300
C127        C  0.10004100  0.35458229  0.20972079    -0.03200
C128        C  0.08654934  0.36600507  0.18811257    -0.18300
H129        H  0.02193457  0.45910196  0.13002184     0.10800
H130        H  0.03878988  0.43250391  0.16724477     0.10900
H131        H  0.06895862  0.40729064  0.07547095     0.10500
H132        H  0.05249445  0.43406338  0.03829538     0.11600
H133        H  0.05609092  0.39576447  0.17343044     0.11700
H134        H  0.10343423  0.41250100  0.11630528     0.13600
H135        H  0.14905639  0.41933827  0.14473885     0.10100
H136        H  0.17253310  0.40036750  0.18381012     0.12200
H137        H  0.08628097  0.33631585  0.22765288     0.08900
H138        H  0.06248795  0.35610718  0.18954386     0.11600
C139        C  0.13133278  0.28049540  0.29016027    -0.03000
C140        C  0.14603734  0.28035895  0.32091101    -0.05600
C141        C  0.13416643  0.25466130  0.34184516    -0.20700
C142        C  0.10707241  0.22840134  0.33283876     0.25000
C143        C  0.09147827  0.22881332  0.30284880    -0.18200
C144        C  0.10343927  0.25468418  0.28188466    -0.08200
C145        C  0.09579963  0.20176354  0.35627341    -0.18500
C146        C  0.07434201  0.17342785  0.34743705    -0.23300
C147        C  0.06412483  0.14722070  0.37140826     0.27100
C148        C  0.04981288  0.11808436  0.35710946    -0.20100
C149        C  0.03962224  0.09286369  0.37879055    -0.09700
C150        C  0.04337637  0.09622989  0.41536453    -0.10300
C151        C  0.05758639  0.12539078  0.42968972    -0.03200
C152        C  0.06764677  0.15054388  0.40807133    -0.18300
H153        H  0.16696405  0.30000084  0.32878861     0.10800
H154        H  0.14640627  0.25527215  0.36513110     0.10900
H155        H  0.06990231  0.20954323  0.29568315     0.10500
H156        H  0.09072344  0.25452008  0.25934657     0.11600
H157        H  0.10698924  0.20572311  0.38142245     0.11700
H158        H  0.06481514  0.16878972  0.32125348     0.13600
H159        H  0.04654918  0.11481802  0.32903417     0.10100
H160        H  0.02859099  0.07072039  0.36689194     0.12200
H161        H  0.06051253  0.12882405  0.45777257     0.08900
H162        H  0.07749604  0.17237095  0.42044321     0.11600
C163        C  0.22118576  0.37174551  0.28729672    -0.03000
C164        C  0.24150970  0.40273035  0.28289545    -0.05600
C165        C  0.26900167  0.41712448  0.30075155    -0.20700
C166        C  0.27658611  0.40087640  0.32353518     0.25000
C167        C  0.25610474  0.36975449  0.32778952    -0.18200
C168        C  0.22869427  0.35541890  0.30984473    -0.08200
C169        C  0.30647812  0.41679599  0.34112752    -0.18500
C170        C  0.31234793  0.40690506  0.37096758    -0.23300
C171        C  0.34189949  0.42293509  0.38918185     0.27100
C172        C  0.34265054  0.41847142  0.42535436    -0.20100
C173        C  0.36982106  0.43288005  0.44368938    -0.09700
C174        C  0.39706898  0.45173672  0.42616755    -0.10300
C175        C  0.39648907  0.45577725  0.38976105    -0.03200
C176        C  0.36915659  0.44159653  0.37142563    -0.18300
H177        H  0.23625773  0.41563646  0.26518244     0.10800
H178        H  0.28445318  0.44101113  0.29665622     0.10900
H179        H  0.26152445  0.35611894  0.34389290     0.10500
H180        H  0.21410403  0.33131536  0.31222100     0.11600
H181        H  0.32370182  0.43809878  0.32995460     0.11700
H182        H  0.29432377  0.38716413  0.38396489     0.13600
H183        H  0.32206037  0.40396352  0.43958763     0.10100
H184        H  0.36947649  0.42900174  0.47165984     0.12200
H185        H  0.41711864  0.47002469  0.37550179     0.08900
H186        H  0.36954556  0.44488283  0.34335484     0.11600
C187        C  0.03889548  0.44788774  0.42581151    -0.03000
C188        C  0.04905106  0.43144901  0.44428305    -0.05600
C189        C  0.06108061  0.41670011  0.42649717    -0.20700
C190        C  0.06363743  0.41822995  0.38985712     0.25000
C191        C  0.05302852  0.43422808  0.37117055    -0.18200
C192        C  0.04081525  0.44891633  0.38900485    -0.08200
C193        C  0.07701285  0.40243259  0.37227178    -0.18500
C194        C  0.09067167  0.41070978  0.34080918    -0.23300
C195        C  0.10547731  0.39612924  0.32362900     0.27100
C196        C  0.12661893  0.41208780  0.29717921    -0.20100
C197        C  0.14047962  0.39916970  0.27937934    -0.09700
C198        C  0.13314665  0.36975179  0.28722605    -0.10300
C199        C  0.11250011  0.35383577  0.31406693    -0.00200
C200        C  0.09858321  0.36678194  0.33201510    -0.18300
H201        H  0.04773654  0.42994011  0.47262011     0.10800
H202        H  0.06879217  0.40432281  0.44152641     0.10900
H203        H  0.05370892  0.43514122  0.34283826     0.10500
H204        H  0.03293870  0.46112434  0.37395697     0.11600
H205        H  0.07730695  0.38474129  0.38699109     0.11700
H206        H  0.09263853  0.43017563  0.32768697     0.13600
H207        H  0.13241894  0.43468088  0.29017940     0.10100
H208        H  0.15676108  0.41207778  0.25917158     0.12200
H209        H  0.10641750  0.33101969  0.32033189     0.08900
H210        H  0.08192970  0.35339098  0.35160494     0.11600
C211        C  0.44759404  0.05257437  0.92958355    -0.03000
C212        C  0.41966627  0.04695080  0.94152435    -0.05600
C213        C  0.40543017  0.06007826  0.92479676    -0.20700
C214        C  0.41826654  0.07813230  0.89502493     0.25000
C215        C  0.44610378  0.08362782  0.88279808    -0.18200
C216        C  0.46087153  0.07128328  0.90027517    -0.08200
C217        C  0.40276276  0.09188813  0.87794757    -0.18500
C218        C  0.39995820  0.09225192  0.84291360    -0.23300
C219        C  0.38429247  0.10579001  0.82558738     0.27100
C220        C  0.36755795  0.09256062  0.79499735    -0.20100
C221        C  0.35414951  0.10597308  0.77698140    -0.09700
C222        C  0.35843680  0.13368638  0.78824302    -0.10300
C223        C  0.37419566  0.14621995  0.81964006    -0.03200
C224        C  0.38702747  0.13248040  0.83813997    -0.18300
H225        H  0.40909396  0.03279744  0.96425794     0.10800
H226        H  0.38413737  0.05578648  0.93479962     0.10900
H227        H  0.45667317  0.09793021  0.86018296     0.10500
H228        H  0.48238997  0.07595160  0.89062546     0.11600
H229        H  0.39174879  0.10012751  0.89465642     0.11700
H230        H  0.40823691  0.08108676  0.82649457     0.13600
H231        H  0.36485561  0.07181003  0.78506070     0.10100
H232        H  0.34092186  0.09492326  0.75379458     0.12200
H233        H  0.37739746  0.16716794  0.82950717     0.08900
H234        H  0.40001127  0.14333859  0.86152881     0.11600
C235        C  0.36337248  0.22510550  0.79373158    -0.03000
C236        C  0.38706059  0.23125465  0.81630874    -0.05600
C237        C  0.40037707  0.25711918  0.83721567    -0.20700
C238        C  0.39035693  0.27746941  0.83585970     0.25000
C239        C  0.36617401  0.27089810  0.81334424    -0.18200
C240        C  0.35292668  0.24500199  0.79248077    -0.08200
C241        C  0.40599276  0.30504045  0.85822515    -0.18500
C242        C  0.40077547  0.32780987  0.85704560    -0.23300
C243        C  0.41670849  0.35512080  0.87950055     0.27100
C244        C  0.40253021  0.37117200  0.88660482    -0.20100
C245        C  0.41667734  0.39718596  0.90718435    -0.09700
C246        C  0.44559644  0.40803264  0.92084125    -0.10300
C247        C  0.46007115  0.39226147  0.91327808    -0.03200
C248        C  0.44581176  0.36608233  0.89281081    -0.18300
H249        H  0.39591623  0.21652780  0.81701673     0.10800
H250        H  0.41890315  0.26147779  0.85414898     0.10900
H251        H  0.35714047  0.28536430  0.81149359     0.10500
H252        H  0.33450586  0.24047192  0.77522896     0.11600
H253        H  0.42257600  0.30646067  0.87661351     0.11700
H254        H  0.38367464  0.32652286  0.83976942     0.13600
H255        H  0.38024979  0.36338990  0.87642450     0.10100
H256        H  0.40488551  0.40879264  0.91238929     0.12200
H257        H  0.48241535  0.40008476  0.92327279     0.08900
H258        H  0.45789018  0.35490516  0.88700757     0.11600
C259        C  0.27374117  0.14095765  0.78881814    -0.03000
C260        C  0.25488858  0.15228265  0.78316312    -0.05600
C261        C  0.22853355  0.14140186  0.80261876    -0.20700
C262        C  0.22041812  0.11902138  0.82823086     0.25000
C263        C  0.23990283  0.10834228  0.83458086    -0.18200
C264        C  0.26633924  0.11930683  0.81505543    -0.08200
C265        C  0.19196025  0.10826600  0.84810359    -0.18500
C266        C  0.17781675  0.08245510  0.86678137    -0.23300
C267        C  0.14907076  0.07136437  0.88620573     0.27100
C268        C  0.13320148  0.04130936  0.89770162    -0.20100
C269        C  0.10641132  0.02977883  0.91649908    -0.09700
C270        C  0.09473346  0.04805677  0.92443407    -0.10300
C271        C  0.11061990  0.07821894  0.91311856    -0.03200
C272        C  0.13751608  0.08980315  0.89436695    -0.18300
H273        H  0.26054040  0.16949851  0.76354748     0.10800
H274        H  0.21429287  0.15040360  0.79744366     0.10900
H275        H  0.23519235  0.09188150  0.85478255     0.10500
H276        H  0.28084924  0.11059973  0.82010104     0.11600
H277        H  0.18174781  0.12173842  0.84573387     0.11700
H278        H  0.18690221  0.06789162  0.86692346     0.13600
H279        H  0.14156529  0.02659345  0.89210281     0.10100
H280        H  0.09490551  0.00649556  0.92491369     0.12200
H281        H  0.10245537  0.09303055  0.91909049     0.08900
H282        H  0.14925830  0.11330721  0.88703181     0.11600
C283        C  0.45881751  0.05932251  0.57837997    -0.03000
C284        C  0.47801515  0.08981834  0.58734821    -0.05600
C285        C  0.46755152  0.10482541  0.60769738    -0.20700
C286        C  0.43763518  0.08985407  0.61925427     0.25000
C287        C  0.41856047  0.05919370  0.61083472    -0.18200
C288        C  0.42901722  0.04417370  0.59055525    -0.08200
C289        C  0.42737231  0.10657467  0.64091428    -0.18500
C290        C  0.39843518  0.09900176  0.64251983    -0.23300
C291        C  0.38733318  0.11487946  0.66443810     0.27100
C292        C  0.35861618  0.10983751  0.65742074    -0.20100
C293        C  0.34632408  0.12262604  0.67857921    -0.09700
C294        C  0.36236111  0.14046645  0.70748467    -0.10300
C295        C  0.39146942  0.14644124  0.71397514    -0.03200
C296        C  0.40374921  0.13352671  0.69294259    -0.18300
H297        H  0.50113903  0.10216297  0.57857238     0.10800
H298        H  0.48281809  0.12833037  0.61414092     0.10900
H299        H  0.39568145  0.04652765  0.62030196     0.10500
H300        H  0.41370707  0.02060261  0.58451259     0.11600
H301        H  0.44453583  0.12647632  0.65457808     0.11700
H302        H  0.38193385  0.08068874  0.62619424     0.13600
H303        H  0.34543973  0.09559252  0.63572087     0.10100
H304        H  0.32389615  0.11785689  0.67298449     0.12200
H305        H  0.40441874  0.16054548  0.73586115     0.08900
H306        H  0.42565949  0.13761629  0.69982459     0.11600
C307        C  0.44494804  0.40835514  0.58179541    -0.03000
C308        C  0.41699700  0.39854897  0.59753917    -0.05600
C309        C  0.40295516  0.37236673  0.61790064    -0.20700
C310        C  0.41643531  0.35532293  0.62304319     0.25000
C311        C  0.44433231  0.36501186  0.60698557    -0.18200
C312        C  0.45846144  0.39131074  0.58680965    -0.08200
C313        C  0.40002291  0.32714133  0.64413553    -0.18500
C314        C  0.41263278  0.31209250  0.65688377    -0.23300
C315        C  0.39589862  0.28356007  0.67726584     0.27100
C316        C  0.41231816  0.27430098  0.69725909    -0.20100
C317        C  0.39763127  0.24728846  0.71611470    -0.09700
C318        C  0.36626414  0.22894238  0.71505705    -0.10300
C319        C  0.34972311  0.23805755  0.69538897    -0.03200
C320        C  0.36432799  0.26497464  0.67640275    -0.18300
H321        H  0.40589060  0.41107613  0.59409175     0.10800
H322        H  0.38138581  0.36536011  0.62964040     0.10900
H323        H  0.45519867  0.35222452  0.60914630     0.10500
H324        H  0.47979538  0.39801259  0.57464648     0.11600
H325        H  0.37675533  0.31915385  0.65015155     0.11700
H326        H  0.43647453  0.32132014  0.65341402     0.13600
H327        H  0.43660836  0.28802101  0.69829499     0.10100
H328        H  0.41070726  0.24056108  0.73132385     0.12200
H329        H  0.32547072  0.22460051  0.69514458     0.08900
H330        H  0.35071535  0.27070395  0.66080907     0.11600
C331        C  0.27508930  0.14110443  0.70812607    -0.03000
C332        C  0.27541988  0.15736331  0.67856523    -0.05600
C333        C  0.24989857  0.14665536  0.65752623    -0.20700
C334        C  0.22360120  0.11912658  0.66508947     0.25000
C335        C  0.22342814  0.10243070  0.69428784    -0.18200
C336        C  0.24904082  0.11313967  0.71522919    -0.08200
C337        C  0.19679146  0.10912529  0.64241765    -0.18500
C338        C  0.17391038  0.08029333  0.64015659    -0.23300
C339        C  0.14720586  0.07005097  0.61724778     0.27100
C340        C  0.12987981  0.03941139  0.60845471    -0.20100
C341        C  0.10421964  0.02845734  0.58761649    -0.09700
C342        C  0.09509229  0.04789475  0.57524430    -0.10300
C343        C  0.11233856  0.07860248  0.58414254    -0.03200
C344        C  0.13806077  0.08957879  0.60502285    -0.18300
H345        H  0.29523531  0.17857162  0.67181078     0.10800
H346        H  0.25073270  0.15995180  0.63518841     0.10900
H347        H  0.20352618  0.08139073  0.70158579     0.10500
H348        H  0.24837139  0.09956530  0.73713963     0.11600
H349        H  0.19676561  0.12605874  0.62584990     0.11700
H350        H  0.17523285  0.06296158  0.65434665     0.13600
H351        H  0.13625242  0.02383839  0.61770917     0.10100
H352        H  0.09143901  0.00466034  0.58137633     0.12200
H353        H  0.10580898  0.09414290  0.57526511     0.08900
H354        H  0.15020816  0.11317733  0.61203540     0.11600
C355        C  0.33405352  0.66952992  0.71629877     0.45700
H356        H  0.33515123  0.67130885  0.68723649    -0.03400
C357        C  0.33252652  0.66596128  0.78448712     0.45700
H358        H  0.33163249  0.66468554  0.81358468    -0.03400
C359        C  0.35072272  0.70024198  0.73467649    -0.17100
C360        C  0.30202479  0.65342916  0.73127050    -0.16800
C361        C  0.34822770  0.65226847  0.73106463    -0.17200
C362        C  0.35009358  0.69841907  0.77050868    -0.17200
C363        C  0.30127841  0.65193920  0.76740000    -0.16700
C364        C  0.34710836  0.64995110  0.76718240    -0.17100
C365        C  0.16169522  0.83998289  0.28275368     0.45700
H366        H  0.16211233  0.84094185  0.31186219    -0.03400
C367        C  0.16106747  0.83898510  0.21448647     0.45700
H368        H  0.16067592  0.83842208  0.18534418    -0.03400
C369        C  0.19322996  0.85601237  0.26613467    -0.17100
C370        C  0.14524838  0.80781331  0.26736217    -0.16800
C371        C  0.14600817  0.85520046  0.26618272    -0.17200
C372        C  0.19285617  0.85521663  0.23009449    -0.17200
C373        C  0.14513502  0.80754068  0.23118454    -0.16700
C374        C  0.14567016  0.85451136  0.23022450    -0.17100
O375        O  0.48715740  0.94604301  0.95361115    -0.78300
C376        C  0.06655559  0.53580319  0.94506233     0.82700
O377        O  0.01618424  0.98040437  0.07323297    -0.79400
O378        O  0.03711398  0.57629649  0.02267601    -0.80900
O379        O  0.44604591  0.51210544  0.95981049    -0.80700
O380        O  0.44500657  0.94696776  0.95266309    -0.79300
Zn381      Zn  0.01610701  0.98115808  0.98444773     1.55700
O382        O  0.49093350  0.55391368  0.95215267    -0.80700
Cd383      Cd  0.45486808  0.98254167  0.98541256     1.59700
Cd384      Cd  0.49819533  0.50423012  0.05303438     1.59600
O385        O  0.42583629  0.96534808  0.02755234    -0.80700
O386        O  0.49762668  0.50320648  0.00070397    -1.91200
Cd387      Cd  0.01961677  0.54537960  0.98157823     1.59900
O388        O  0.45563131  0.98419104  0.07421418    -0.80700
O389        O  0.05591762  0.55253751  0.95131968    -0.79300
C390        C  0.02616566  0.96537713  0.05869262     0.83200
C391        C  0.46010873  0.93521042  0.94343657     0.82900
O392        O  0.05368975  0.50879093  0.95646201    -0.78300
C393        C  0.46244653  0.53878866  0.94794799     0.83700
O394        O  0.02740792  0.96394064  0.02537743    -0.78400
C395        C  0.42956636  0.96872394  0.06063802     0.83800
C396        C  0.03681178  0.57348227  0.05598845     0.84100
O397        O  0.02323866  0.54775896  0.07079973    -0.80800
O398        O  0.05238376  0.50800193  0.54631665    -0.78300
C399        C  0.45952991  0.93571979  0.55951435     0.82700
O400        O  0.01524514  0.97687084  0.42853872    -0.79400
O401        O  0.42450661  0.96834850  0.47940588    -0.80900
O402        O  0.49700351  0.55744775  0.54633066    -0.80700
O403        O  0.05925135  0.55384341  0.54308491    -0.79300
Zn404      Zn  0.01519199  0.98072752  0.51795761     1.55700
O405        O  0.45145708  0.51594865  0.54805088    -0.80700
Cd406      Cd  0.02172906  0.54570464  0.51488652     1.59700
Cd407      Cd  0.49522234  0.50009094  0.44703824     1.59600
O408        O  0.03533234  0.57377956  0.47171066    -0.80700
O409        O  0.49724524  0.50258632  0.49976014    -1.91200
Cd410      Cd  0.45586185  0.98469928  0.51929516     1.59900
O411        O  0.01702023  0.54313910  0.42543889    -0.80700
O412        O  0.44506736  0.94843301  0.55146968    -0.79300
C413        C  0.02649061  0.96373439  0.44518961     0.83200
C414        C  0.06747597  0.53600434  0.55369987     0.82900
O415        O  0.48613254  0.94578482  0.54840464    -0.78300
C416        C  0.46970669  0.54337354  0.55646139     0.83700
O417        O  0.02738847  0.96380861  0.47858232    -0.78400
C418        C  0.03141327  0.56955610  0.43869376     0.83800
C419        C  0.42568325  0.96683245  0.44612380     0.84100
O420        O  0.45063570  0.97766593  0.42990265    -0.80800
C421        C  0.13244903  0.78040375  0.20875880    -0.03000
C422        C  0.11309456  0.77686858  0.18116384    -0.05600
C423        C  0.10189157  0.75210043  0.15874820    -0.20700
C424        C  0.10981094  0.73039087  0.16347489     0.25000
C425        C  0.12963990  0.73421877  0.19092278    -0.18200
C426        C  0.14086930  0.75907033  0.21334686    -0.08200
C427        C  0.09755439  0.70467395  0.13862583    -0.18500
C428        C  0.09490796  0.67817462  0.14636703    -0.23300
C429        C  0.08087679  0.65196519  0.12221828     0.27100
C430        C  0.06746167  0.62299003  0.13659128    -0.20100
C431        C  0.05330357  0.59762204  0.11504144    -0.09700
C432        C  0.05250497  0.60065165  0.07844798    -0.10300
C433        C  0.06667878  0.62971406  0.06388134    -0.03200
C434        C  0.08078060  0.65515184  0.08553248    -0.18300
H435        H  0.10659039  0.79327965  0.17703897     0.10800
H436        H  0.08688329  0.74983721  0.13768335     0.10900
H437        H  0.13712585  0.71857824  0.19471462     0.10500
H438        H  0.15647621  0.76191692  0.23392631     0.11600
H439        H  0.08863825  0.70712792  0.11394645     0.11700
H440        H  0.10110962  0.67462769  0.17230035     0.13600
H441        H  0.06749353  0.61993411  0.16472336     0.10100
H442        H  0.04284798  0.57559990  0.12716262     0.12200
H443        H  0.06678403  0.63282211  0.03576807     0.08900
H444        H  0.09179673  0.67718000  0.07341503     0.11600
C445        C  0.40294164  0.95400520  0.08384155    -0.03000
C446        C  0.40617898  0.95654628  0.12053535    -0.05600
C447        C  0.38094090  0.94233722  0.14228790    -0.20700
C448        C  0.35199677  0.92557273  0.12785425     0.25000
C449        C  0.34880512  0.92249099  0.09118013    -0.18200
C450        C  0.37397558  0.93666999  0.06945760    -0.08200
C451        C  0.32565730  0.91126809  0.15165811    -0.18500
C452        C  0.29835425  0.90536654  0.14167107    -0.23300
C453        C  0.27173728  0.89193053  0.16498433     0.27100
C454        C  0.24790109  0.89581158  0.15615647    -0.20100
C455        C  0.22229871  0.88359024  0.17709087    -0.09700
C456        C  0.22002303  0.86746992  0.20757910    -0.10300
C457        C  0.24330563  0.86240316  0.21568118    -0.03200
C458        C  0.26900306  0.87460964  0.19469993    -0.18300
H459        H  0.42820181  0.96949419  0.13248026     0.10800
H460        H  0.38400917  0.94475178  0.17046450     0.10900
H461        H  0.32696987  0.90879294  0.07907263     0.10500
H462        H  0.37070261  0.93387566  0.04134922     0.11600
H463        H  0.32941650  0.90725163  0.17858321     0.11700
H464        H  0.29557656  0.91221887  0.11574287     0.13600
H465        H  0.24914018  0.90852342  0.13300851     0.10100
H466        H  0.20443752  0.88696168  0.16938296     0.12200
H467        H  0.24148632  0.84865346  0.23795378     0.08900
H468        H  0.28627133  0.86990763  0.20150139     0.11600
C469        C  0.03623534  0.94906594  0.08121030    -0.03000
C470        C  0.03230734  0.94802928  0.11781874    -0.05600
C471        C  0.04180151  0.93270700  0.13915532    -0.20700
C472        C  0.05577163  0.91844861  0.12447274     0.25000
C473        C  0.05912819  0.91888537  0.08781040    -0.18200
C474        C  0.04948322  0.93405588  0.06643536    -0.08200
C475        C  0.06669424  0.90342610  0.14799028    -0.18500
C476        C  0.09098621  0.90192305  0.14020511    -0.23300
C477        C  0.10404355  0.88941931  0.16431568     0.27100
C478        C  0.13504098  0.90113799  0.16266640    -0.20100
C479        C  0.14845758  0.89000923  0.18452030    -0.09700
C480        C  0.13107938  0.86646756  0.20785444    -0.10300
C481        C  0.10000278  0.85451099  0.20966498    -0.03200
C482        C  0.08650990  0.86594500  0.18807576    -0.18300
H483        H  0.02188894  0.95907912  0.13005876     0.10800
H484        H  0.03872915  0.93246254  0.16727788     0.10900
H485        H  0.06893556  0.90729272  0.07550064     0.10500
H486        H  0.05249015  0.93408408  0.03833455     0.11600
H487        H  0.05604249  0.89571963  0.17344836     0.11700
H488        H  0.10340632  0.91250617  0.11633407     0.13600
H489        H  0.14902692  0.91934954  0.14477881     0.10100
H490        H  0.17250357  0.90036010  0.18382192     0.12200
H491        H  0.08624169  0.83622506  0.22757408     0.08900
H492        H  0.06244633  0.85603516  0.18949457     0.11600
C493        C  0.13131782  0.78048323  0.29015914    -0.03000
C494        C  0.14600984  0.78034647  0.32092068    -0.05600
C495        C  0.13413433  0.75464458  0.34184850    -0.20700
C496        C  0.10704800  0.72838188  0.33282601     0.25000
C497        C  0.09146178  0.72879739  0.30283007    -0.18200
C498        C  0.10342712  0.75467239  0.28187282    -0.08200
C499        C  0.09577770  0.70173690  0.35624845    -0.18500
C500        C  0.07430432  0.67340538  0.34741879    -0.23300
C501        C  0.06408835  0.64719528  0.37138536     0.27100
C502        C  0.04973814  0.61805609  0.35708933    -0.20100
C503        C  0.03955088  0.59283441  0.37876864    -0.09700
C504        C  0.04334731  0.59620328  0.41533829    -0.10300
C505        C  0.05759327  0.62536658  0.42966052    -0.03200
C506        C  0.06764963  0.65051985  0.40804483    -0.18300
H507        H  0.16692974  0.79998794  0.32880866     0.10800
H508        H  0.14636681  0.75525414  0.36514157     0.10900
H509        H  0.06989202  0.70952758  0.29565125     0.10500
H510        H  0.09071855  0.75450978  0.25932785     0.11600
H511        H  0.10698220  0.70568923  0.38138750     0.11700
H512        H  0.06475746  0.66877177  0.32124387     0.13600
H513        H  0.04644169  0.61478823  0.32901669     0.10100
H514        H  0.02848844  0.57068892  0.36687328     0.12200
H515        H  0.06055264  0.62880278  0.45774031     0.08900
H516        H  0.07752700  0.67234809  0.42041869     0.11600
C517        C  0.22116946  0.87175638  0.28729179    -0.03000
C518        C  0.24150636  0.90273527  0.28285789    -0.05600
C519        C  0.26899980  0.91713255  0.30071125    -0.20700
C520        C  0.27657224  0.90089486  0.32352791     0.25000
C521        C  0.25607646  0.86978032  0.32781875    -0.18200
C522        C  0.22866573  0.85544106  0.30987505    -0.08200
C523        C  0.30646647  0.91681380  0.34111582    -0.18500
C524        C  0.31232663  0.90694300  0.37097857    -0.23300
C525        C  0.34188044  0.92296623  0.38918810     0.27100
C526        C  0.34262872  0.91853124  0.42536799    -0.20100
C527        C  0.36980114  0.93292804  0.44369884    -0.09700
C528        C  0.39705402  0.95174434  0.42616661    -0.10300
C529        C  0.39647607  0.95575846  0.38975371    -0.03200
C530        C  0.36914154  0.94158916  0.37142148    -0.18300
H531        H  0.23626433  0.91563370  0.26511797     0.10800
H532        H  0.28446253  0.94101354  0.29658744     0.10900
H533        H  0.26148585  0.85615044  0.34395030     0.10500
H534        H  0.21406607  0.83134174  0.31227977     0.11600
H535        H  0.32370166  0.93809920  0.32991728     0.11700
H536        H  0.29429206  0.88722265  0.38399720     0.13600
H537        H  0.32203485  0.90405361  0.43960996     0.10100
H538        H  0.36945344  0.92907193  0.47167519     0.12200
H539        H  0.41710856  0.96997536  0.37548650     0.08900
H540        H  0.36953154  0.94485260  0.34334664     0.11600
C541        C  0.03889774  0.94790506  0.42576312    -0.03000
C542        C  0.04906225  0.93147173  0.44422938    -0.05600
C543        C  0.06108278  0.91671741  0.42643757    -0.20700
C544        C  0.06362131  0.91823518  0.38979592     0.25000
C545        C  0.05300638  0.93423049  0.37111446    -0.18200
C546        C  0.04080189  0.94892469  0.38895503    -0.08200
C547        C  0.07698433  0.90242718  0.37220695    -0.18500
C548        C  0.09062719  0.91068849  0.34073456    -0.23300
C549        C  0.10542979  0.89610238  0.32355972     0.27100
C550        C  0.12656990  0.91205452  0.29710674    -0.20100
C551        C  0.14043499  0.89913503  0.27931960    -0.09700
C552        C  0.13310682  0.86972083  0.28718056    -0.10300
C553        C  0.11245858  0.85380964  0.31402154    -0.00200
C554        C  0.09853812  0.86675781  0.33195859    -0.18300
H555        H  0.04776117  0.92997032  0.47256665     0.10800
H556        H  0.06880051  0.90434411  0.44146370     0.10900
H557        H  0.05367457  0.93513582  0.34278060     0.10500
H558        H  0.03291809  0.96112883  0.37391119     0.11600
H559        H  0.07728588  0.88474299  0.38693222     0.11700
H560        H  0.09258785  0.93014805  0.32760272     0.13600
H561        H  0.13236789  0.93464522  0.29009706     0.10100
H562        H  0.15671792  0.91204011  0.25911239     0.12200
H563        H  0.10637896  0.83099569  0.32029724     0.08900
H564        H  0.08188565  0.85337194  0.35155078     0.11600
C565        C  0.44758484  0.55255882  0.92956067    -0.03000
C566        C  0.41967343  0.54696497  0.94152205    -0.05600
C567        C  0.40544057  0.56009429  0.92479133    -0.20700
C568        C  0.41826247  0.57811916  0.89499589     0.25000
C569        C  0.44608188  0.58358257  0.88274500    -0.18200
C570        C  0.46084806  0.57123740  0.90022586    -0.08200
C571        C  0.40276677  0.59188431  0.87792220    -0.18500
C572        C  0.39991421  0.59220469  0.84289217    -0.23300
C573        C  0.38426017  0.60575744  0.82557050     0.27100
C574        C  0.36749423  0.59251718  0.79500172    -0.20100
C575        C  0.35409811  0.60594300  0.77698787    -0.09700
C576        C  0.35842405  0.63367522  0.78823316    -0.10300
C577        C  0.37421607  0.64622292  0.81960738    -0.03200
C578        C  0.38703884  0.63247292  0.83810362    -0.18300
H579        H  0.40911282  0.53283540  0.96427593     0.10800
H580        H  0.38416227  0.55582823  0.93481176     0.10900
H581        H  0.45663897  0.59786103  0.86011172     0.10500
H582        H  0.48235380  0.57588260  0.89056003     0.11600
H583        H  0.39179734  0.60017000  0.89463801     0.11700
H584        H  0.40814733  0.58099525  0.82647464     0.13600
H585        H  0.36476018  0.57174934  0.78507876     0.10100
H586        H  0.34085099  0.59489018  0.75381221     0.12200
H587        H  0.37745170  0.66719041  0.82945555     0.08900
H588        H  0.40004986  0.64334203  0.86147308     0.11600
C589        C  0.36337509  0.72510032  0.79372705    -0.03000
C590        C  0.38709729  0.73127730  0.81625981    -0.05600
C591        C  0.40041506  0.75714534  0.83716069    -0.20700
C592        C  0.39035928  0.77746812  0.83584420     0.25000
C593        C  0.36614363  0.77086826  0.81337085    -0.18200
C594        C  0.35289535  0.74496912  0.79251352    -0.08200
C595        C  0.40600413  0.80504801  0.85819363    -0.18500
C596        C  0.40069958  0.82776088  0.85711145    -0.23300
C597        C  0.41665353  0.85508697  0.87953927     0.27100
C598        C  0.40244167  0.87108938  0.88674140    -0.20100
C599        C  0.41660363  0.89711408  0.90730094    -0.09700
C600        C  0.44556881  0.90801777  0.92084436    -0.10300
C601        C  0.46007575  0.89229607  0.91318217    -0.03200
C602        C  0.44580410  0.86610950  0.89272963    -0.18300
H603        H  0.39597598  0.71656994  0.81693730     0.10800
H604        H  0.41896794  0.76152739  0.85405752     0.10900
H605        H  0.35708979  0.78531720  0.81153929     0.10500
H606        H  0.33445111  0.74041749  0.77529251     0.11600
H607        H  0.42266717  0.80652104  0.87648931     0.11700
H608        H  0.38351044  0.82641279  0.83994568     0.13600
H609        H  0.38012352  0.86326073  0.87665372     0.10100
H610        H  0.40478483  0.90868013  0.91258495     0.12200
H611        H  0.48245624  0.90016541  0.92308521     0.08900
H612        H  0.45790922  0.85497410  0.88684558     0.11600
C613        C  0.27374698  0.64096562  0.78882349    -0.03000
C614        C  0.25490233  0.65230149  0.78318179    -0.05600
C615        C  0.22854516  0.64141679  0.80263400    -0.20700
C616        C  0.22041969  0.61902159  0.82822979     0.25000
C617        C  0.23990035  0.60833609  0.83457155    -0.18200
C618        C  0.26633862  0.61930454  0.81504927    -0.08200
C619        C  0.19195211  0.60825489  0.84808737    -0.18500
C620        C  0.17781551  0.58245104  0.86677973    -0.23300
C621        C  0.14906084  0.57135228  0.88618912     0.27100
C622        C  0.13321880  0.54131033  0.89773255    -0.20100
C623        C  0.10642438  0.52977479  0.91652288    -0.09700
C624        C  0.09471564  0.54803548  0.92440369    -0.10300
C625        C  0.11057222  0.57818283  0.91303625    -0.03200
C626        C  0.13747159  0.58977192  0.89429091    -0.18300
H627        H  0.26056037  0.66952644  0.76357615     0.10800
H628        H  0.21430927  0.65042531  0.79746647     0.10900
H629        H  0.23518414  0.59186415  0.85476099     0.10500
H630        H  0.28084416  0.61058986  0.82008564     0.11600
H631        H  0.18172869  0.62171448  0.84569483     0.11700
H632        H  0.18691570  0.56790118  0.86695214     0.13600
H633        H  0.14160854  0.52660903  0.89217955     0.10100
H634        H  0.09494283  0.50650413  0.92497888     0.12200
H635        H  0.10238181  0.59298095  0.91896284     0.08900
H636        H  0.14918803  0.61326498  0.88691619     0.11600
C637        C  0.45883055  0.55930187  0.57843068    -0.03000
C638        C  0.47802973  0.58979613  0.58740600    -0.05600
C639        C  0.46756726  0.60480102  0.60776129    -0.20700
C640        C  0.43765076  0.58982972  0.61931736     0.25000
C641        C  0.41857614  0.55917003  0.61089495    -0.18200
C642        C  0.42903146  0.54415175  0.59060972    -0.08200
C643        C  0.42738475  0.60654991  0.64097326    -0.18500
C644        C  0.39844892  0.59898304  0.64256244    -0.23300
C645        C  0.38734448  0.61486664  0.66446568     0.27100
C646        C  0.35864183  0.60984995  0.65741440    -0.20100
C647        C  0.34634650  0.62264410  0.67855885    -0.09700
C648        C  0.36236558  0.64046503  0.70748410    -0.10300
C649        C  0.39146250  0.64641740  0.71400568    -0.03200
C650        C  0.40374428  0.63349611  0.69298816    -0.18300
H651        H  0.50115324  0.60214162  0.57862871     0.10800
H652        H  0.48283483  0.62830632  0.61420778     0.10900
H653        H  0.39569640  0.54650363  0.62036255     0.10500
H654        H  0.41372055  0.52058136  0.58456299     0.11600
H655        H  0.44454614  0.62645054  0.65464384     0.11700
H656        H  0.38195098  0.58067254  0.62622909     0.13600
H657        H  0.34547822  0.59561927  0.63569847     0.10100
H658        H  0.32392816  0.61789222  0.67293864     0.12200
H659        H  0.40440048  0.66050807  0.73590491     0.08900
H660        H  0.42564302  0.63756572  0.69989539     0.11600
C661        C  0.44494466  0.90839131  0.58184600    -0.03000
C662        C  0.41698753  0.89857946  0.59757631    -0.05600
C663        C  0.40294746  0.87240089  0.61794469    -0.20700
C664        C  0.41643436  0.85536520  0.62310677     0.25000
C665        C  0.44434053  0.86506410  0.60706672    -0.18200
C666        C  0.45846773  0.89135918  0.58688556    -0.08200
C667        C  0.40001968  0.82718199  0.64419906    -0.18500
C668        C  0.41262031  0.81211660  0.65692287    -0.23300
C669        C  0.39588624  0.78357916  0.67729688     0.27100
C670        C  0.41231057  0.77429853  0.69724470    -0.20100
C671        C  0.39762758  0.74727909  0.71608649    -0.09700
C672        C  0.36625912  0.72894541  0.71505930    -0.10300
C673        C  0.34971213  0.73808120  0.69543728    -0.03200
C674        C  0.36431320  0.76500799  0.67646690    -0.18300
H675        H  0.40587396  0.91109830  0.59411039     0.10800
H676        H  0.38137136  0.86538838  0.62967182     0.10900
H677        H  0.45521764  0.85228744  0.60924316     0.10500
H678        H  0.47980889  0.89806695  0.57473490     0.11600
H679        H  0.37675538  0.81920239  0.65022883     0.11700
H680        H  0.43645833  0.82133119  0.65343433     0.13600
H681        H  0.43660198  0.78800693  0.69825515     0.10100
H682        H  0.41070817  0.74053666  0.73126213     0.12200
H683        H  0.32545796  0.72463079  0.69521544     0.08900
H684        H  0.35069621  0.77075524  0.66091006     0.11600
C685        C  0.27508604  0.64111769  0.70813168    -0.03000
C686        C  0.27541721  0.65738136  0.67857533    -0.05600
C687        C  0.24989524  0.64667591  0.65753681    -0.20700
C688        C  0.22359559  0.61914791  0.66509887     0.25000
C689        C  0.22342089  0.60245114  0.69429783    -0.18200
C690        C  0.24903478  0.61315582  0.71523612    -0.08200
C691        C  0.19678681  0.60914752  0.64242307    -0.18500
C692        C  0.17389075  0.58032044  0.64018360    -0.23300
C693        C  0.14718868  0.57007665  0.61726869     0.27100
C694        C  0.12983878  0.53942820  0.60852236    -0.20100
C695        C  0.10418092  0.52847155  0.58767990    -0.09700
C696        C  0.09507831  0.54791447  0.57525619    -0.10300
C697        C  0.11234812  0.57863131  0.58410722    -0.03200
C698        C  0.13806906  0.58961088  0.60499134    -0.18300
H699        H  0.29523345  0.67859059  0.67182504     0.10800
H700        H  0.25073079  0.65997437  0.63520003     0.10900
H701        H  0.20351953  0.58141395  0.70159817     0.10500
H702        H  0.24836413  0.59957916  0.73714431     0.11600
H703        H  0.19677373  0.62607697  0.62583513     0.11700
H704        H  0.17519676  0.56298985  0.65439820     0.13600
H705        H  0.13619078  0.52385014  0.61781699     0.10100
H706        H  0.09138139  0.50466678  0.58147782     0.12200
H707        H  0.10583839  0.59417714  0.57518813     0.08900
H708        H  0.15023599  0.61321857  0.61196508     0.11600
C709        C  0.83405611  0.16953042  0.71629621     0.45700
H710        H  0.83515581  0.17131094  0.68723406    -0.03400
C711        C  0.83252478  0.16595769  0.78448409     0.45700
H712        H  0.83162886  0.16468049  0.81358159    -0.03400
C713        C  0.85072582  0.20024145  0.73467646    -0.17100
C714        C  0.80202653  0.15343007  0.73126475    -0.16800
C715        C  0.84822712  0.15226611  0.73106213    -0.17200
C716        C  0.85009468  0.19841622  0.77050850    -0.17200
C717        C  0.80127770  0.15193823  0.76739425    -0.16700
C718        C  0.84710613  0.14994684  0.76717983    -0.17100
C719        C  0.66169504  0.33998617  0.28275329     0.45700
H720        H  0.66211265  0.34094525  0.31186178    -0.03400
C721        C  0.66106602  0.33898811  0.21448604     0.45700
H722        H  0.66067403  0.33842513  0.18534377    -0.03400
C723        C  0.69322934  0.35601090  0.26613363    -0.17100
C724        C  0.64524411  0.30781650  0.26736190    -0.16800
C725        C  0.64601211  0.35520809  0.26618241    -0.17200
C726        C  0.69285477  0.35521526  0.23009342    -0.17200
C727        C  0.64512928  0.30754372  0.23118416    -0.16700
C728        C  0.64567381  0.35451899  0.23022442    -0.17100
O729        O  0.98715509  0.44604180  0.95360739    -0.78300
C730        C  0.56655793  0.03580242  0.94506261     0.82700
O731        O  0.51618536  0.48040075  0.07322090    -0.79400
O732        O  0.53712126  0.07630102  0.02267151    -0.80900
O733        O  0.94604836  0.01210840  0.95981799    -0.80700
O734        O  0.94500278  0.44696390  0.95266169    -0.79300
Zn735      Zn  0.51610402  0.48115594  0.98443886     1.55700
O736        O  0.99093543  0.05391679  0.95215856    -0.80700
Cd737      Cd  0.95486459  0.48253944  0.98541021     1.59700
Cd738      Cd  0.99819689  0.00423472  0.05304000     1.59600
O739        O  0.92583335  0.46534642  0.02755178    -0.80700
O740        O  0.99763039  0.00321002  0.00070956    -1.91200
Cd741      Cd  0.51961971  0.04538158  0.98157632     1.59900
O742        O  0.95562903  0.48417760  0.07421487    -0.80700
O743        O  0.55591798  0.05253591  0.95131469    -0.79300
C744        C  0.52616810  0.46537528  0.05867910     0.83200
C745        C  0.96010589  0.43520769  0.94343435     0.82900
O746        O  0.55369400  0.00879171  0.95646743    -0.78300
C747        C  0.96244821  0.03879156  0.94795538     0.83700
O748        O  0.52740955  0.46393916  0.02536395    -0.78400
C749        C  0.92956380  0.46871503  0.06063822     0.83800
C750        C  0.53681868  0.07348797  0.05598415     0.84100
O751        O  0.52324440  0.04776528  0.07079675    -0.80800
O752        O  0.55238799  0.00800369  0.54630755    -0.78300
C753        C  0.95952466  0.43571098  0.55950389     0.82700
O754        O  0.51524919  0.47687778  0.42854102    -0.79400
O755        O  0.92450623  0.46835214  0.47940489    -0.80900
O756        O  0.99700660  0.05745134  0.54632702    -0.80700
O757        O  0.55925407  0.05384474  0.54308087    -0.79300
Zn758      Zn  0.51519070  0.48072625  0.51795985     1.55700
O759        O  0.95145938  0.01595312  0.54804385    -0.80700
Cd760      Cd  0.52173249  0.04570680  0.51488165     1.59700
Cd761      Cd  0.99522211  0.00008844  0.44703553     1.59600
O762        O  0.53533807  0.07377955  0.47170396    -0.80700
O763        O  0.99724618  0.00258693  0.49975742    -1.91200
Cd764      Cd  0.95585961  0.48469635  0.51929503     1.59900
O765        O  0.51702333  0.04313833  0.42543300    -0.80700
O766        O  0.94506294  0.44842534  0.55146074    -0.79300
C767        C  0.52649748  0.46374347  0.44519057     0.83200
C768        C  0.56747986  0.03600572  0.55369236     0.82900
O769        O  0.98612871  0.44577784  0.54839792    -0.78300
C770        C  0.96970908  0.04337770  0.55645537     0.83700
O771        O  0.52739427  0.46381518  0.47858328    -0.78400
C772        C  0.53141860  0.06955567  0.43868714     0.83800
C773        C  0.92568289  0.46683571  0.44612299     0.84100
O774        O  0.95063529  0.47766654  0.42990237    -0.80800
C775        C  0.63244077  0.28040695  0.20875782    -0.03000
C776        C  0.61309010  0.27687580  0.18115999    -0.05600
C777        C  0.60188740  0.25210900  0.15874200    -0.20700
C778        C  0.60980316  0.23039682  0.16346980     0.25000
C779        C  0.62962832  0.23422112  0.19092034    -0.18200
C780        C  0.64085793  0.25907112  0.21334668    -0.08200
C781        C  0.59754774  0.20468111  0.13861893    -0.18500
C782        C  0.59489621  0.17817989  0.14636401    -0.23300
C783        C  0.58087037  0.15197123  0.12221398     0.27100
C784        C  0.56745494  0.12299624  0.13658737    -0.20100
C785        C  0.55330289  0.09762832  0.11503719    -0.09700
C786        C  0.55251039  0.10065784  0.07844300    -0.10300
C787        C  0.56668519  0.12972017  0.06387599    -0.03200
C788        C  0.58078117  0.15515812  0.08552757    -0.18300
H789        H  0.60658915  0.29328933  0.17703425     0.10800
H790        H  0.58688259  0.24984895  0.13767495     0.10900
H791        H  0.63711250  0.21857825  0.19471295     0.10500
H792        H  0.65646161  0.26191481  0.23392624     0.11600
H793        H  0.58863889  0.20713789  0.11393702     0.11700
H794        H  0.60109043  0.17463138  0.17229945     0.13600
H795        H  0.56748175  0.11994022  0.16471979     0.10100
H796        H  0.54284643  0.07560656  0.12715870     0.12200
H797        H  0.56679500  0.13282807  0.03576226     0.08900
H798        H  0.59179782  0.17718602  0.07341039     0.11600
C799        C  0.90293897  0.45399326  0.08384178    -0.03000
C800        C  0.90617617  0.45652979  0.12053603    -0.05600
C801        C  0.88093766  0.44231975  0.14228800    -0.20700
C802        C  0.85199351  0.42555879  0.12785366     0.25000
C803        C  0.84880233  0.42248045  0.09117934    -0.18200
C804        C  0.87397292  0.43666039  0.06945760    -0.08200
C805        C  0.82565350  0.41125488  0.15165673    -0.18500
C806        C  0.79835198  0.40535809  0.14167009    -0.23300
C807        C  0.77173451  0.39192296  0.16498241     0.27100
C808        C  0.74790007  0.39580679  0.15615517    -0.20100
C809        C  0.72229764  0.38358728  0.17708926    -0.09700
C810        C  0.72002080  0.36746599  0.20757734    -0.10300
C811        C  0.74330119  0.36239594  0.21567833    -0.03200
C812        C  0.76899826  0.37460036  0.19469716    -0.18300
H813        H  0.92819871  0.46947533  0.13248132     0.10800
H814        H  0.88400574  0.44473142  0.17046521     0.10900
H815        H  0.82696659  0.40878445  0.07907111     0.10500
H816        H  0.87070000  0.43386897  0.04134775     0.11600
H817        H  0.82941134  0.40723520  0.17858106     0.11700
H818        H  0.79557619  0.41221383  0.11574276     0.13600
H819        H  0.74914048  0.40852019  0.13300673     0.10100
H820        H  0.70443862  0.38696059  0.16938199     0.12200
H821        H  0.74148028  0.34864458  0.23795106     0.08900
H822        H  0.78626477  0.36989573  0.20149803     0.11600
C823        C  0.53624021  0.44906597  0.08119573    -0.03000
C824        C  0.53231073  0.44802858  0.11780391    -0.05600
C825        C  0.54180684  0.43270854  0.13914116    -0.20700
C826        C  0.55578046  0.41845348  0.12445939     0.25000
C827        C  0.55913910  0.41889120  0.08779729    -0.18200
C828        C  0.54949180  0.43405928  0.06642148    -0.08200
C829        C  0.56670366  0.40343308  0.14797830    -0.18500
C830        C  0.59099838  0.40193413  0.14019795    -0.23300
C831        C  0.60405432  0.38943096  0.16431124     0.27100
C832        C  0.63505145  0.40114796  0.16266357    -0.20100
C833        C  0.64846616  0.39001876  0.18451986    -0.09700
C834        C  0.63108604  0.36647823  0.20785464    -0.10300
C835        C  0.60001011  0.35452439  0.20966452    -0.03200
C836        C  0.58651903  0.36595857  0.18807304    -0.18300
H837        H  0.52188991  0.45907553  0.13004323     0.10800
H838        H  0.53873315  0.43246331  0.16726269     0.10900
H839        H  0.56894973  0.40730116  0.07548876     0.10500
H840        H  0.55249997  0.43408849  0.03832033     0.11600
H841        H  0.55604874  0.39572440  0.17343590     0.11700
H842        H  0.60342074  0.41251921  0.11632825     0.13600
H843        H  0.64903866  0.41935830  0.14477490     0.10100
H844        H  0.67251153  0.40036783  0.18382244     0.12200
H845        H  0.58624739  0.33623915  0.22757479     0.08900
H846        H  0.56245615  0.35605010  0.18949100     0.11600
C847        C  0.63131605  0.28048671  0.29015920    -0.03000
C848        C  0.64601276  0.28034955  0.32091629    -0.05600
C849        C  0.63414099  0.25464739  0.34184272    -0.20700
C850        C  0.60705359  0.22838471  0.33282384     0.25000
C851        C  0.59146250  0.22880063  0.30283290    -0.18200
C852        C  0.60342429  0.25467586  0.28187647    -0.08200
C853        C  0.59578644  0.20173947  0.35624518    -0.18500
C854        C  0.57431555  0.17340729  0.34741369    -0.23300
C855        C  0.56409988  0.14719663  0.37137965     0.27100
C856        C  0.54974929  0.11805761  0.35708301    -0.20100
C857        C  0.53956008  0.09283523  0.37876172    -0.09700
C858        C  0.54335512  0.09620327  0.41533166    -0.10300
C859        C  0.55760214  0.12536644  0.42965388    -0.03200
C860        C  0.56766039  0.15052040  0.40803931    -0.18300
H861        H  0.66693408  0.29999162  0.32880163     0.10800
H862        H  0.64637753  0.25525660  0.36513285     0.10900
H863        H  0.56989135  0.20953050  0.29565752     0.10500
H864        H  0.59071274  0.25451344  0.25933484     0.11600
H865        H  0.60699077  0.20569237  0.38138412     0.11700
H866        H  0.56477004  0.16877416  0.32123865     0.13600
H867        H  0.54645342  0.11479030  0.32900968     0.10100
H868        H  0.52849707  0.07068994  0.36686596     0.12200
H869        H  0.56056091  0.12880241  0.45773567     0.08900
H870        H  0.57753806  0.17234823  0.42041354     0.11600
C871        C  0.72116948  0.37175305  0.28728978    -0.03000
C872        C  0.74150488  0.40273258  0.28285871    -0.05600
C873        C  0.76899890  0.41712959  0.30071115    -0.20700
C874        C  0.77657288  0.40089100  0.32352419     0.25000
C875        C  0.75607900  0.36977580  0.32781194    -0.18200
C876        C  0.72866786  0.35543648  0.30986846    -0.08200
C877        C  0.80646703  0.41681074  0.34111179    -0.18500
C878        C  0.81232602  0.40694296  0.37097781    -0.23300
C879        C  0.84187972  0.42296919  0.38918779     0.27100
C880        C  0.84262749  0.41853963  0.42536915    -0.20100
C881        C  0.86980010  0.43293759  0.44369977    -0.09700
C882        C  0.89705344  0.45174950  0.42616612    -0.10300
C883        C  0.89647566  0.45575987  0.38975240    -0.03200
C884        C  0.86914106  0.44158933  0.37142061    -0.18300
H885        H  0.73626159  0.41563135  0.26512283     0.10800
H886        H  0.78445993  0.44101048  0.29658990     0.10900
H887        H  0.76149036  0.35614623  0.34394086     0.10500
H888        H  0.71406985  0.33133697  0.31226988     0.11600
H889        H  0.82370209  0.43809469  0.32991147     0.11700
H890        H  0.79429142  0.38722446  0.38399745     0.13600
H891        H  0.82203381  0.40406515  0.43961186     0.10100
H892        H  0.86945204  0.42908496  0.47167696     0.12200
H893        H  0.91710826  0.46997376  0.37548449     0.08900
H894        H  0.86953128  0.44484919  0.34334383     0.11600
C895        C  0.53890836  0.44791891  0.42576207    -0.03000
C896        C  0.54906645  0.43147878  0.44422507    -0.05600
C897        C  0.56108757  0.41672629  0.42643092    -0.20700
C898        C  0.56363330  0.41825292  0.38979000     0.25000
C899        C  0.55302650  0.43425680  0.37111145    -0.18200
C900        C  0.54082127  0.44894906  0.38895461    -0.08200
C901        C  0.57699395  0.40244392  0.37219876    -0.18500
C902        C  0.59063847  0.41070587  0.34072761    -0.23300
C903        C  0.60543836  0.39611704  0.32355311     0.27100
C904        C  0.62658258  0.41206914  0.29710379    -0.20100
C905        C  0.64044655  0.39914712  0.27931943    -0.09700
C906        C  0.63311345  0.36973128  0.28717932    -0.10300
C907        C  0.61246046  0.35381997  0.31401590    -0.00200
C908        C  0.59854054  0.36677001  0.33195045    -0.18300
H909        H  0.54775870  0.42996956  0.47256234     0.10800
H910        H  0.56879926  0.40434652  0.44145457     0.10900
H911        H  0.55370076  0.43516980  0.34277831     0.10500
H912        H  0.53294325  0.46115941  0.37391321     0.11600
H913        H  0.57729171  0.38475627  0.38692239     0.11700
H914        H  0.59260325  0.43016803  0.32759713     0.13600
H915        H  0.63238440  0.43466048  0.29009562     0.10100
H916        H  0.65673278  0.41205201  0.25911421     0.12200
H917        H  0.60637631  0.33100460  0.32029005     0.08900
H918        H  0.58188527  0.35338477  0.35153780     0.11600
C919        C  0.94758518  0.05256018  0.92956754    -0.03000
C920        C  0.91967329  0.04696549  0.94152819    -0.05600
C921        C  0.90543760  0.06009009  0.92479364    -0.20700
C922        C  0.91825721  0.07811160  0.89499512     0.25000
C923        C  0.94607739  0.08357611  0.88274580    -0.18200
C924        C  0.96084604  0.07123544  0.90022993    -0.08200
C925        C  0.90275873  0.09187329  0.87791868    -0.18500
C926        C  0.89991900  0.09220562  0.84288742    -0.23300
C927        C  0.88426277  0.10575623  0.82556595     0.27100
C928        C  0.86750079  0.09251787  0.79499440    -0.20100
C929        C  0.85410126  0.10594123  0.77698225    -0.09700
C930        C  0.85842182  0.13367069  0.78823087    -0.10300
C931        C  0.87421000  0.14621607  0.81960779    -0.03200
C932        C  0.88703479  0.13246765  0.83810335    -0.18300
H933        H  0.90911381  0.03283766  0.96428486     0.10800
H934        H  0.88415833  0.05582307  0.93481379     0.10900
H935        H  0.95663393  0.09785311  0.86010955     0.10500
H936        H  0.98235260  0.07588111  0.89056402     0.11600
H937        H  0.89177821  0.10014745  0.89463193     0.11700
H938        H  0.90816335  0.08100756  0.82646881     0.13600
H939        H  0.86477176  0.07175306  0.78506828     0.10100
H940        H  0.84085666  0.09488925  0.75380558     0.12200
H941        H  0.87744163  0.16718196  0.82945918     0.08900
H942        H  0.90004213  0.14333452  0.86147520     0.11600
C943        C  0.86337549  0.22509579  0.79372935    -0.03000
C944        C  0.88709793  0.23127252  0.81626142    -0.05600
C945        C  0.90041436  0.25713869  0.83716505    -0.20700
C946        C  0.89035685  0.27746014  0.83585222     0.25000
C947        C  0.86614022  0.27086006  0.81338038    -0.18200
C948        C  0.85289380  0.24496301  0.79251977    -0.08200
C949        C  0.90599985  0.30503880  0.85820391    -0.18500
C950        C  0.90070115  0.32775546  0.85711361    -0.23300
C951        C  0.91665340  0.35508165  0.87954140     0.27100
C952        C  0.90244372  0.37108808  0.88673309    -0.20100
C953        C  0.91660510  0.39711387  0.90729138    -0.09700
C954        C  0.94556697  0.40801440  0.92084321    -0.10300
C955        C  0.96007164  0.39228869  0.91319093    -0.03200
C956        C  0.94580084  0.36610075  0.89274028    -0.18300
H957        H  0.89597804  0.21656495  0.81693636     0.10800
H958        H  0.91896811  0.26152094  0.85406162     0.10900
H959        H  0.85708364  0.28530687  0.81155339     0.10500
H960        H  0.83444891  0.24041143  0.77529955     0.11600
H961        H  0.92265746  0.30650858  0.87650628     0.11700
H962        H  0.88351887  0.32641148  0.83993862     0.13600
H963        H  0.88012940  0.36326243  0.87663889     0.10100
H964        H  0.90478829  0.40868317  0.91256730     0.12200
H965        H  0.98244962  0.40015541  0.92310070     0.08900
H966        H  0.95790341  0.35496238  0.88686454     0.11600
C967        C  0.77374473  0.14096247  0.78881586    -0.03000
C968        C  0.75489507  0.15229180  0.78316809    -0.05600
C969        C  0.72853797  0.14140608  0.80262108    -0.20700
C970        C  0.72041805  0.11901732  0.82822383     0.25000
C971        C  0.73990323  0.10833820  0.83457096    -0.18200
C972        C  0.76634123  0.11930704  0.81504763    -0.08200
C973        C  0.69195126  0.10825087  0.84808330    -0.18500
C974        C  0.67781958  0.08245037  0.86678281    -0.23300
C975        C  0.64906487  0.07135150  0.88619235     0.27100
C976        C  0.63322327  0.04131007  0.89773709    -0.20100
C977        C  0.60642821  0.02977411  0.91652615    -0.09700
C978        C  0.59471847  0.04803446  0.92440465    -0.10300
C979        C  0.61057506  0.07818154  0.91303644    -0.03200
C980        C  0.63747504  0.08977094  0.89429245    -0.18300
H981        H  0.76054910  0.16951192  0.76355877     0.10800
H982        H  0.71429828  0.15040948  0.79744906     0.10900
H983        H  0.73519133  0.09187176  0.85476502     0.10500
H984        H  0.78084981  0.11059776  0.82008847     0.11600
H985        H  0.68172465  0.12170597  0.84568595     0.11700
H986        H  0.68692247  0.06790363  0.86696006     0.13600
H987        H  0.64161407  0.02660853  0.89218533     0.10100
H988        H  0.59494688  0.00650392  0.92498286     0.12200
H989        H  0.60238399  0.09297995  0.91896182     0.08900
H990        H  0.64919153  0.11326366  0.88691735     0.11600
C991        C  0.95883142  0.05930565  0.57842293    -0.03000
C992        C  0.97802708  0.08980216  0.58739124    -0.05600
C993        C  0.96756196  0.10480612  0.60774418    -0.20700
C994        C  0.93764661  0.08983130  0.61930507     0.25000
C995        C  0.91857602  0.05916961  0.61088990    -0.18200
C996        C  0.92903366  0.04415237  0.59060684    -0.08200
C997        C  0.92737864  0.10655063  0.64095953    -0.18500
C998        C  0.89844031  0.09897521  0.64255781    -0.23300
C999        C  0.88733680  0.11485917  0.66446162     0.27100
C1000       C  0.85863445  0.10984355  0.65741192    -0.20100
C1001       C  0.84634142  0.12263954  0.67855689    -0.09700
C1002       C  0.86236255  0.14046091  0.70748101    -0.10300
C1003       C  0.89145880  0.14641144  0.71400135    -0.03200
C1004       C  0.90373841  0.13348818  0.69298372    -0.18300
H1005       H  0.00114904  0.10214983  0.57861014     0.10800
H1006       H  0.98282648  0.12831293  0.61418510     0.10900
H1007       H  0.89569748  0.04650059  0.62036162     0.10500
H1008       H  0.91372584  0.02058051  0.58456593     0.11600
H1009       H  0.94453888  0.12645613  0.65462083     0.11700
H1010       H  0.88194119  0.08065977  0.62623287     0.13600
H1011       H  0.84546963  0.09561271  0.63569633     0.10100
H1012       H  0.82392314  0.11788895  0.67293799     0.12200
H1013       H  0.90439816  0.16050199  0.73590045     0.08900
H1014       H  0.92563558  0.13755543  0.69988999     0.11600
C1015       C  0.94493686  0.40838005  0.58183106    -0.03000
C1016       C  0.91698163  0.39857113  0.59756465    -0.05600
C1017       C  0.90294059  0.37239293  0.61793360    -0.20700
C1018       C  0.91642560  0.35535508  0.62309272     0.25000
C1019       C  0.94432848  0.36504944  0.60704708    -0.18200
C1020       C  0.95845655  0.39134412  0.58686530    -0.08200
C1021       C  0.90001210  0.32717383  0.64418783    -0.18500
C1022       C  0.91261728  0.31211598  0.65692202    -0.23300
C1023       C  0.89588519  0.28357941  0.67729774     0.27100
C1024       C  0.91231048  0.27430554  0.69725490    -0.20100
C1025       C  0.89762920  0.24728618  0.71609704    -0.09700
C1026       C  0.86626137  0.22894612  0.71506127    -0.10300
C1027       C  0.84971360  0.23807614  0.69543120    -0.03200
C1028       C  0.86431299  0.26500218  0.67645981    -0.18300
H1029       H  0.90587026  0.41109302  0.59410225     0.10800
H1030       H  0.88136750  0.36538349  0.62966394     0.10900
H1031       H  0.95520235  0.35226892  0.60922034     0.10500
H1032       H  0.97979516  0.39804898  0.57471130     0.11600
H1033       H  0.87674641  0.31919060  0.65021162     0.11700
H1034       H  0.93645688  0.32133655  0.65344039     0.13600
H1035       H  0.93660181  0.28801916  0.69827182     0.10100
H1036       H  0.91071052  0.24054853  0.73127913     0.12200
H1037       H  0.82545970  0.22462186  0.69520400     0.08900
H1038       H  0.85069534  0.27074416  0.66089600     0.11600
C1039       C  0.77508955  0.14111757  0.70812261    -0.03000
C1040       C  0.77542218  0.15738064  0.67856471    -0.05600
C1041       C  0.74990106  0.14667482  0.65752446    -0.20700
C1042       C  0.72360145  0.11914664  0.66508561     0.25000
C1043       C  0.72342606  0.10244959  0.69428452    -0.18200
C1044       C  0.74903876  0.11315480  0.71522496    -0.08200
C1045       C  0.69679293  0.10914678  0.64240975    -0.18500
C1046       C  0.67389833  0.08031912  0.64016797    -0.23300
C1047       C  0.64719521  0.07007608  0.61725517     0.27100
C1048       C  0.62984757  0.03942866  0.60850356    -0.20100
C1049       C  0.60418868  0.02847272  0.58766299    -0.09700
C1050       C  0.59508305  0.04791531  0.57524672    -0.10300
C1051       C  0.61235052  0.07863083  0.58410356    -0.03200
C1052       C  0.63807252  0.08961014  0.60498582    -0.18300
H1053       H  0.79523817  0.17858900  0.67181435     0.10800
H1054       H  0.75073733  0.15997312  0.63518746     0.10900
H1055       H  0.70352447  0.08141174  0.70158367     0.10500
H1056       H  0.74836744  0.09957822  0.73713350     0.11600
H1057       H  0.69677845  0.12607683  0.62582489     0.11700
H1058       H  0.67520622  0.06298854  0.65437859     0.13600
H1059       H  0.63620195  0.02385128  0.61779223     0.10100
H1060       H  0.59139108  0.00466904  0.58145655     0.12200
H1061       H  0.60583812  0.09417662  0.57519044     0.08900
H1062       H  0.65023708  0.11321556  0.61196407     0.11600
C1063       C  0.83405191  0.66952934  0.71630299     0.45700
H1064       H  0.83515008  0.67130495  0.68724038    -0.03400
C1065       C  0.83252527  0.66596746  0.78449111     0.45700
H1066       H  0.83162902  0.66469390  0.81358862    -0.03400
C1067       C  0.85071771  0.70024325  0.73467619    -0.17100
C1068       C  0.80202339  0.65342394  0.73127254    -0.16800
C1069       C  0.84822994  0.65227406  0.73107237    -0.17200
C1070       C  0.85008804  0.69842566  0.77050926    -0.17200
C1071       C  0.80127624  0.65193749  0.76740185    -0.16700
C1072       C  0.84711367  0.64996033  0.76719096    -0.17100
C1073       C  0.66171736  0.83999504  0.28276611     0.45700
H1074       H  0.66214113  0.84094902  0.31187473    -0.03400
C1075       C  0.66107631  0.83901067  0.21449910     0.45700
H1076       H  0.66067918  0.83845296  0.18535686    -0.03400
C1077       C  0.69324765  0.85601582  0.26613880    -0.17100
C1078       C  0.64525872  0.80782817  0.26736606    -0.16800
C1079       C  0.64603814  0.85522696  0.26621281    -0.17200
C1080       C  0.69286742  0.85522501  0.23009896    -0.17200
C1081       C  0.64513434  0.80756274  0.23118810    -0.16700
C1082       C  0.64569515  0.85454715  0.23025418    -0.17100
O1083       O  0.98717488  0.94606065  0.95362839    -0.78300
C1084       C  0.56656664  0.53582242  0.94508128     0.82700
O1085       O  0.51617537  0.98037848  0.07320549    -0.79400
O1086       O  0.53709831  0.57631631  0.02265449    -0.80900
O1087       O  0.94605348  0.51210763  0.95979446    -0.80700
O1088       O  0.94501848  0.94697505  0.95267296    -0.79300
Zn1089     Zn  0.51609780  0.98114034  0.98442484     1.55700
O1090       O  0.99094126  0.55392393  0.95217593    -0.80700
Cd1091     Cd  0.95486995  0.98254493  0.98543077     1.59700
Cd1092     Cd  0.99818716  0.50420456  0.05302135     1.59600
O1093       O  0.92584489  0.96534115  0.02757850    -0.80700
O1094       O  0.99762397  0.50319392  0.00069233    -1.91200
Cd1095     Cd  0.51961232  0.54538693  0.98157165     1.59900
O1096       O  0.95563851  0.98420661  0.07423908    -0.80700
O1097       O  0.55592294  0.55255317  0.95132773    -0.79300
C1098       C  0.52616659  0.96536066  0.05866397     0.83200
C1099       C  0.96012730  0.93522426  0.94344737     0.82900
O1100       O  0.55370322  0.50881179  0.95648657    -0.78300
C1101       C  0.96245591  0.53879828  0.94795488     0.83700
O1102       O  0.52741037  0.96392650  0.02534873    -0.78400
C1103       C  0.92957453  0.96872157  0.06066440     0.83800
C1104       C  0.53680571  0.57351327  0.05596761     0.84100
O1105       O  0.52324659  0.54779418  0.07079070    -0.80800
O1106       O  0.55239485  0.50798699  0.54630171    -0.78300
C1107       C  0.95954303  0.93570262  0.55948905     0.82700
O1108       O  0.51522831  0.97683692  0.42856489    -0.79400
O1109       O  0.92451569  0.96833933  0.47940970    -0.80900
O1110       O  0.99698905  0.55745393  0.54630495    -0.80700
O1111       O  0.55925751  0.55382800  0.54310220    -0.79300
Zn1112     Zn  0.51518107  0.98073170  0.51797720     1.55700
O1113       O  0.95144314  0.51595519  0.54802905    -0.80700
Cd1114     Cd  0.52174272  0.54570500  0.51490263     1.59700
Cd1115     Cd  0.99520806  0.50006822  0.44703670     1.59600
O1116       O  0.53535918  0.57379829  0.47173992    -0.80700
O1117       O  0.99723340  0.50258271  0.49975800    -1.91200
Cd1118     Cd  0.95587283  0.98469459  0.51929993     1.59900
O1119       O  0.51703684  0.54316811  0.42546064    -0.80700
O1120       O  0.94508347  0.94842280  0.55146248    -0.79300
C1121       C  0.52647530  0.96370690  0.44522735     0.83200
C1122       C  0.56748412  0.53598640  0.55370073     0.82900
O1123       O  0.98614323  0.94576690  0.54837090    -0.78300
C1124       C  0.96969142  0.54338142  0.55643290     0.83700
O1125       O  0.52737651  0.96379464  0.47862017    -0.78400
C1126       C  0.53143825  0.56958221  0.43872219     0.83800
C1127       C  0.92569561  0.96683218  0.44612658     0.84100
O1128       O  0.95064996  0.97768209  0.42990591    -0.80800
C1129       C  0.63244090  0.78043217  0.20875120    -0.03000
C1130       C  0.61307847  0.77690447  0.18116856    -0.05600
C1131       C  0.60188018  0.75214978  0.15873131    -0.20700
C1132       C  0.60981310  0.73044707  0.16342482     0.25000
C1133       C  0.62965107  0.73426923  0.19085917    -0.18200
C1134       C  0.64087430  0.75910594  0.21330541    -0.08200
C1135       C  0.59755665  0.70473839  0.13856336    -0.18500
C1136       C  0.59489799  0.67823368  0.14630436    -0.23300
C1137       C  0.58086093  0.65201997  0.12216188     0.27100
C1138       C  0.56746228  0.62304968  0.13654509    -0.20100
C1139       C  0.55330707  0.59767487  0.11500683    -0.09700
C1140       C  0.55249380  0.60069171  0.07841357    -0.10300
C1141       C  0.56664765  0.62974955  0.06383521    -0.03200
C1142       C  0.58074676  0.65519521  0.08547561    -0.18300
H1143       H  0.60656639  0.79331266  0.17706824     0.10800
H1144       H  0.58686546  0.74989102  0.13767799     0.10900
H1145       H  0.63714874  0.71863466  0.19462344     0.10500
H1146       H  0.65648879  0.76194884  0.23387234     0.11600
H1147       H  0.58864704  0.70720081  0.11388304     0.11700
H1148       H  0.60109507  0.67468525  0.17223997     0.13600
H1149       H  0.56750709  0.62000229  0.16467808     0.10100
H1150       H  0.54286653  0.57565734  0.12713687     0.12200
H1151       H  0.56674004  0.63284788  0.03572093     0.08900
H1152       H  0.59174767  0.67721908  0.07334987     0.11600
C1153       C  0.90294988  0.95398348  0.08386855    -0.03000
C1154       C  0.90618274  0.95652907  0.12056309    -0.05600
C1155       C  0.88094298  0.94230212  0.14231264    -0.20700
C1156       C  0.85200200  0.92551540  0.12787509     0.25000
C1157       C  0.84881645  0.92242456  0.09120165    -0.18200
C1158       C  0.87398761  0.93662108  0.06948249    -0.08200
C1159       C  0.82565723  0.91120528  0.15167093    -0.18500
C1160       C  0.79835685  0.90530482  0.14167189    -0.23300
C1161       C  0.77173718  0.89187967  0.16497940     0.27100
C1162       C  0.74791503  0.89578326  0.15615217    -0.20100
C1163       C  0.72231514  0.88358165  0.17708940    -0.09700
C1164       C  0.72002908  0.86745783  0.20757868    -0.10300
C1165       C  0.74329452  0.86236404  0.21567572    -0.03200
C1166       C  0.76898917  0.87455175  0.19469264    -0.18300
H1167       H  0.92820332  0.96949607  0.13251008     0.10800
H1168       H  0.88400679  0.94472322  0.17049067     0.10900
H1169       H  0.82698436  0.90870839  0.07909233     0.10500
H1170       H  0.87071798  0.93382009  0.04137383     0.11600
H1171       H  0.82941026  0.90719097  0.17859914     0.11700
H1172       H  0.79558616  0.91215716  0.11574060     0.13600
H1173       H  0.74916444  0.90850043  0.13300448     0.10100
H1174       H  0.70446745  0.88697204  0.16938478     0.12200
H1175       H  0.74146359  0.84860719  0.23794630     0.08900
H1176       H  0.78624599  0.86983181  0.20149120     0.11600
C1177       C  0.53624752  0.94906040  0.08118279    -0.03000
C1178       C  0.53233631  0.94804317  0.11779298    -0.05600
C1179       C  0.54183934  0.93273202  0.13913402    -0.20700
C1180       C  0.55580207  0.91846554  0.12445469     0.25000
C1181       C  0.55914589  0.91888541  0.08779126    -0.18200
C1182       C  0.54949121  0.93404507  0.06641107    -0.08200
C1183       C  0.56672739  0.90345160  0.14798050    -0.18500
C1184       C  0.59101409  0.90193892  0.14019890    -0.23300
C1185       C  0.60407356  0.88944843  0.16432643     0.27100
C1186       C  0.63506716  0.90115008  0.16266091    -0.20100
C1187       C  0.64848393  0.89003056  0.18452888    -0.09700
C1188       C  0.63110911  0.86651480  0.20789461    -0.10300
C1189       C  0.60003718  0.85457891  0.20972587    -0.03200
C1190       C  0.58654465  0.86600360  0.18812193    -0.18300
H1191       H  0.52192428  0.95909919  0.13003135     0.10800
H1192       H  0.53877857  0.93250177  0.16725700     0.10900
H1193       H  0.56894927  0.90728756  0.07548588     0.10500
H1194       H  0.55248644  0.93406006  0.03830870     0.11600
H1195       H  0.55608297  0.89576284  0.17344516     0.11700
H1196       H  0.60342730  0.91250381  0.11631841     0.13600
H1197       H  0.64905023  0.91933961  0.14474631     0.10100
H1198       H  0.67252660  0.90036433  0.18381096     0.12200
H1199       H  0.58627804  0.83631153  0.22765724     0.08900
H1200       H  0.56248334  0.85610591  0.18955555     0.11600
C1201       C  0.63134129  0.78049565  0.29015864    -0.03000
C1202       C  0.64604701  0.78036107  0.32090953    -0.05600
C1203       C  0.63417614  0.75466411  0.34184542    -0.20700
C1204       C  0.60708176  0.72840388  0.33284115     0.25000
C1205       C  0.59148677  0.72881423  0.30285091    -0.18200
C1206       C  0.60344765  0.75468408  0.28188458    -0.08200
C1207       C  0.59580925  0.70176704  0.35627747    -0.18500
C1208       C  0.57435016  0.67343150  0.34744364    -0.23300
C1209       C  0.56413271  0.64722449  0.37141498     0.27100
C1210       C  0.54981633  0.61808796  0.35711664    -0.20100
C1211       C  0.53962383  0.59286675  0.37879729    -0.09700
C1212       C  0.54338065  0.59623307  0.41537118    -0.10300
C1213       C  0.55759574  0.62539417  0.42969603    -0.03200
C1214       C  0.56765829  0.65054801  0.40807796    -0.18300
H1215       H  0.66697210  0.80000188  0.32878543     0.10800
H1216       H  0.64641671  0.75527621  0.36513157     0.10900
H1217       H  0.56991140  0.70954497  0.29568683     0.10500
H1218       H  0.59073133  0.75451882  0.25934719     0.11600
H1219       H  0.60700043  0.70572725  0.38142608     0.11700
H1220       H  0.56482114  0.66879272  0.32126001     0.13600
H1221       H  0.54655001  0.61482142  0.32904107     0.10100
H1222       H  0.52858946  0.57072438  0.36689926     0.12200
H1223       H  0.56052448  0.62882747  0.45777942     0.08900
H1224       H  0.57751125  0.67237456  0.42044919     0.11600
C1225       C  0.72119010  0.87175021  0.28728934    -0.03000
C1226       C  0.74151354  0.90273527  0.28288793    -0.05600
C1227       C  0.76900585  0.91712997  0.30074385    -0.20700
C1228       C  0.77659092  0.90088195  0.32352694     0.25000
C1229       C  0.75611039  0.86975988  0.32778011    -0.18200
C1230       C  0.72869961  0.85542363  0.30983608    -0.08200
C1231       C  0.80648248  0.91680101  0.34112053    -0.18500
C1232       C  0.81235007  0.90690857  0.37096106    -0.23300
C1233       C  0.84190088  0.92293582  0.38917680     0.27100
C1234       C  0.84264939  0.91847409  0.42535035    -0.20100
C1235       C  0.86981947  0.93288085  0.44368690    -0.09700
C1236       C  0.89706877  0.95173309  0.42616566    -0.10300
C1237       C  0.89649133  0.95577068  0.38975783    -0.03200
C1238       C  0.86915926  0.94159195  0.37142099    -0.18300
H1239       H  0.73626076  0.91564110  0.26517560     0.10800
H1240       H  0.78445675  0.94101664  0.29664913     0.10900
H1241       H  0.76153078  0.85612405  0.34388247     0.10500
H1242       H  0.71411093  0.83132134  0.31221172     0.11600
H1243       H  0.82370731  0.93810338  0.32994840     0.11700
H1244       H  0.79432469  0.88716853  0.38395772     0.13600
H1245       H  0.82205885  0.90397045  0.43958253     0.10100
H1246       H  0.86947306  0.92900490  0.47165782     0.12200
H1247       H  0.91712071  0.97001346  0.37549965     0.08900
H1248       H  0.86954966  0.94487598  0.34334992     0.11600
C1249       C  0.53888317  0.94787248  0.42581291    -0.03000
C1250       C  0.54904229  0.93143798  0.44428755    -0.05600
C1251       C  0.56107307  0.91668880  0.42650422    -0.20700
C1252       C  0.56362743  0.91821395  0.38986388     0.25000
C1253       C  0.55301277  0.93420567  0.37117441    -0.18200
C1254       C  0.54079833  0.94889409  0.38900598    -0.08200
C1255       C  0.57700686  0.90241920  0.37228075    -0.18500
C1256       C  0.59066826  0.91069885  0.34081966    -0.23300
C1257       C  0.60547607  0.89612074  0.32363833     0.27100
C1258       C  0.62661792  0.91208145  0.29718932    -0.20100
C1259       C  0.64047838  0.89916462  0.27938582    -0.09700
C1260       C  0.63314539  0.86974604  0.28722854    -0.10300
C1261       C  0.61249920  0.85382821  0.31406911    -0.00200
C1262       C  0.59858227  0.86677284  0.33202087    -0.18300
H1263       H  0.54773111  0.92993392  0.47262431     0.10800
H1264       H  0.56878852  0.90431606  0.44153583     0.10900
H1265       H  0.55369068  0.93511421  0.34284175     0.10500
H1266       H  0.53291808  0.96109811  0.37395548     0.11600
H1267       H  0.57730163  0.88472818  0.38700008     0.11700
H1268       H  0.59263429  0.93016518  0.32769828     0.13600
H1269       H  0.63241779  0.93467491  0.29019236     0.10100
H1270       H  0.65675943  0.91207408  0.25917861     0.12200
H1271       H  0.60641667  0.83101125  0.32033140     0.08900
H1272       H  0.58192924  0.85338081  0.35160991     0.11600
C1273       C  0.94759702  0.55257522  0.92957574    -0.03000
C1274       C  0.91967196  0.54695724  0.94151852    -0.05600
C1275       C  0.90543947  0.56008939  0.92479312    -0.20700
C1276       C  0.91827677  0.57814247  0.89502084     0.25000
C1277       C  0.94611099  0.58363192  0.88279053    -0.18200
C1278       C  0.96087557  0.57128283  0.90026623    -0.08200
C1279       C  0.90277676  0.59190317  0.87794610    -0.18500
C1280       C  0.89995894  0.59225583  0.84291334    -0.23300
C1281       C  0.88429312  0.60579473  0.82558871     0.27100
C1282       C  0.86755251  0.59256205  0.79500304    -0.20100
C1283       C  0.85414493  0.60597535  0.77698730    -0.09700
C1284       C  0.85843750  0.63369154  0.78824496    -0.10300
C1285       C  0.87420150  0.64622811  0.81963828    -0.03200
C1286       C  0.88703362  0.63248864  0.83813753    -0.18300
H1287       H  0.90909907  0.53280506  0.96425314     0.10800
H1288       H  0.88414960  0.55580239  0.93479773     0.10900
H1289       H  0.95668018  0.59793249  0.86017540     0.10500
H1290       H  0.98239145  0.57594699  0.89061527     0.11600
H1291       H  0.89177393  0.60015356  0.89465771     0.11700
H1292       H  0.90822637  0.58107976  0.82649428     0.13600
H1293       H  0.86484555  0.57180871  0.78506935     0.10100
H1294       H  0.84091327  0.59492348  0.75380234     0.12200
H1295       H  0.87740714  0.66717873  0.82950259     0.08900
H1296       H  0.90002231  0.64334988  0.86152328     0.11600
C1297       C  0.86337300  0.72511160  0.79372487    -0.03000
C1298       C  0.88706254  0.73126186  0.81629995    -0.05600
C1299       C  0.90038235  0.75712870  0.83720312    -0.20700
C1300       C  0.89036378  0.77748030  0.83584559     0.25000
C1301       C  0.86618048  0.77090886  0.81333060    -0.18200
C1302       C  0.85292944  0.74500993  0.79247158    -0.08200
C1303       C  0.90600461  0.80505397  0.85820699    -0.18500
C1304       C  0.90076923  0.82781194  0.85705193    -0.23300
C1305       C  0.91670688  0.85512487  0.87950402     0.27100
C1306       C  0.90252351  0.87116837  0.88662585    -0.20100
C1307       C  0.91667289  0.89718270  0.90720474    -0.09700
C1308       C  0.94559879  0.90803710  0.92084473    -0.10300
C1309       C  0.96007823  0.89227378  0.91326411    -0.03200
C1310       C  0.94581740  0.86609497  0.89279623    -0.18300
H1311       H  0.89591721  0.71653423  0.81700904     0.10800
H1312       H  0.91890879  0.76148747  0.85413426     0.10900
H1313       H  0.85715090  0.78537820  0.81147422     0.10500
H1314       H  0.83450845  0.74047978  0.77522033     0.11600
H1315       H  0.92260467  0.80648397  0.87657392     0.11700
H1316       H  0.88364822  0.82651228  0.83980192     0.13600
H1317       H  0.88023792  0.86338022  0.87646020     0.10100
H1318       H  0.90487682  0.90878271  0.91242333     0.12200
H1319       H  0.98242809  0.90010343  0.92324525     0.08900
H1320       H  0.95790010  0.85492493  0.88697924     0.11600
C1321       C  0.77374232  0.64096144  0.78882142    -0.03000
C1322       C  0.75489471  0.65229305  0.78317224    -0.05600
C1323       C  0.72853883  0.64141179  0.80262645    -0.20700
C1324       C  0.72041749  0.61902380  0.82823019     0.25000
C1325       C  0.73989768  0.60833826  0.83457474    -0.18200
C1326       C  0.76633517  0.61930383  0.81505124    -0.08200
C1327       C  0.69195780  0.60826724  0.84809984    -0.18500
C1328       C  0.67781096  0.58245309  0.86677196    -0.23300
C1329       C  0.64906431  0.57136234  0.88619506     0.27100
C1330       C  0.63319369  0.54130669  0.89768818    -0.20100
C1331       C  0.60640400  0.52977621  0.91648636    -0.09700
C1332       C  0.59472793  0.54805520  0.92442474    -0.10300
C1333       C  0.61061514  0.57821762  0.91311101    -0.03200
C1334       C  0.63751094  0.58980201  0.89435863    -0.18300
H1335       H  0.76055058  0.66951337  0.76356219     0.10800
H1336       H  0.71430201  0.65041857  0.79745604     0.10900
H1337       H  0.73518278  0.59187172  0.85476976     0.10500
H1338       H  0.78084174  0.61059149  0.82009189     0.11600
H1339       H  0.68174819  0.62174131  0.84573319     0.11700
H1340       H  0.68689402  0.56788835  0.86691136     0.13600
H1341       H  0.64155656  0.52658985  0.89208708     0.10100
H1342       H  0.59489758  0.50649289  0.92489911     0.12200
H1343       H  0.60245145  0.59303031  0.91908539     0.08900
H1344       H  0.64925342  0.61330552  0.88702560     0.11600
C1345       C  0.95881231  0.55931230  0.57839174    -0.03000
C1346       C  0.97801243  0.58980501  0.58737059    -0.05600
C1347       C  0.96754969  0.60481115  0.60772248    -0.20700
C1348       C  0.93763126  0.58984206  0.61927162     0.25000
C1349       C  0.91855362  0.55918446  0.61084138    -0.18200
C1350       C  0.92900962  0.54416515  0.59055926    -0.08200
C1351       C  0.92736922  0.60656248  0.64093314    -0.18500
C1352       C  0.89843400  0.59899628  0.64253170    -0.23300
C1353       C  0.88733261  0.61487611  0.66444741     0.27100
C1354       C  0.85861607  0.60983475  0.65742806    -0.20100
C1355       C  0.84632430  0.62262538  0.67858328    -0.09700
C1356       C  0.86236097  0.64046773  0.70748756    -0.10300
C1357       C  0.89146916  0.64644257  0.71397948    -0.03200
C1358       C  0.90374861  0.63352591  0.69295023    -0.18300
H1359       H  0.00113889  0.60214861  0.57860072     0.10800
H1360       H  0.98281849  0.62831389  0.61417408     0.10900
H1361       H  0.89567181  0.54651950  0.62030232     0.10500
H1362       H  0.91369735  0.52059647  0.58450799     0.11600
H1363       H  0.94453356  0.62646055  0.65460358     0.11700
H1364       H  0.88193336  0.58068689  0.62620077     0.13600
H1365       H  0.84543938  0.59558801  0.63572884     0.10100
H1366       H  0.82389589  0.61785593  0.67298713     0.12200
H1367       H  0.90441867  0.66054874  0.73586471     0.08900
H1368       H  0.92565954  0.63761632  0.69983383     0.11600
C1369       C  0.94495672  0.90836777  0.58181039    -0.03000
C1370       C  0.91700641  0.89856196  0.59755596    -0.05600
C1371       C  0.90296541  0.87237994  0.61791766    -0.20700
C1372       C  0.91644510  0.85533543  0.62305847     0.25000
C1373       C  0.94434288  0.86502624  0.60700186    -0.18200
C1374       C  0.95847115  0.89132472  0.58682627    -0.08200
C1375       C  0.90003093  0.82715161  0.64414742    -0.18500
C1376       C  0.91263557  0.81209306  0.65688056    -0.23300
C1377       C  0.89589924  0.78355958  0.67726002     0.27100
C1378       C  0.91231736  0.77429475  0.69724621    -0.20100
C1379       C  0.89762879  0.74728249  0.71610162    -0.09700
C1380       C  0.86626117  0.72894166  0.71505021    -0.10300
C1381       C  0.84972128  0.73806121  0.69538693    -0.03200
C1382       C  0.86432801  0.76497901  0.67640172    -0.18300
H1383       H  0.90589936  0.91108877  0.59410823     0.10800
H1384       H  0.88139536  0.86537278  0.62965785     0.10900
H1385       H  0.95521113  0.85223953  0.60916247     0.10500
H1386       H  0.97980625  0.89802735  0.57466222     0.11600
H1387       H  0.87676611  0.81916933  0.65017269     0.11700
H1388       H  0.93647510  0.82131321  0.65340156     0.13600
H1389       H  0.93660822  0.78801094  0.69827772     0.10100
H1390       H  0.91070388  0.74055127  0.73130662     0.12200
H1391       H  0.82546820  0.72460679  0.69514562     0.08900
H1392       H  0.85071673  0.77071316  0.66081242     0.11600
C1393       C  0.77508551  0.64110337  0.70813081    -0.03000
C1394       C  0.77541457  0.65736101  0.67856969    -0.05600
C1395       C  0.74989230  0.64665224  0.65753233    -0.20700
C1396       C  0.72359506  0.61912409  0.66509829     0.25000
C1397       C  0.72342312  0.60242981  0.69429758    -0.18200
C1398       C  0.74903690  0.61313930  0.71523725    -0.08200
C1399       C  0.69678406  0.60912193  0.64242853    -0.18500
C1400       C  0.67390396  0.58028948  0.64016779    -0.23300
C1401       C  0.64719928  0.57004706  0.61725954     0.27100
C1402       C  0.62987926  0.53940949  0.60845577    -0.20100
C1403       C  0.60421950  0.52845589  0.58761695    -0.09700
C1404       C  0.59508653  0.54789158  0.57525501    -0.10300
C1405       C  0.61232668  0.57859732  0.58416431    -0.03200
C1406       C  0.63804847  0.58957309  0.60504527    -0.18300
H1407       H  0.79523026  0.67857005  0.67181415     0.10800
H1408       H  0.75072530  0.65994752  0.63519384     0.10900
H1409       H  0.70352098  0.58139034  0.70159758     0.10500
H1410       H  0.74836838  0.59956640  0.73714752     0.11600
H1411       H  0.69675642  0.62605456  0.62586159     0.11700
H1412       H  0.67522809  0.56295796  0.65435609     0.13600
H1413       H  0.63625662  0.52383798  0.61770188     0.10100
H1414       H  0.59144379  0.50466038  0.58136758     0.12200
H1415       H  0.60579264  0.59413610  0.57529533     0.08900
H1416       H  0.65019140  0.61316986  0.61206689     0.11600
loop_ 
_geom_bond_atom_site_label_1 
_geom_bond_atom_site_label_2 
_geom_bond_distance 
_geom_bond_site_symmetry_2 
_ccdc_geom_bond_type 
C1            H2   1.111       .  S
C1            C7   1.538       .  S
C1            C6   1.537       .  S
C1            C5   1.533       .  S
C3            H4   1.111       .  S
C3            C9   1.540       .  S
C3            C8   1.537       .  S
C3           C10   1.541       .  S
C5            C8   1.368       .  D
C5          C318   1.478       .  S
C6            C9   1.379       .  D
C6          C331   1.490       .  S
C7           C10   1.381       .  D
C7          C294   1.486       .  S
C8          C235   1.479       .  S
C9          C259   1.485       .  S
C10         C222   1.494       .  S
C11          H12   1.110       .  S
C11          C17   1.540       .  S
C11          C16   1.544       .  S
C11          C15   1.541       .  S
C13          H14   1.111       .  S
C13          C19   1.534       .  S
C13          C18   1.534       .  S
C13          C20   1.530       .  S
C15          C18   1.374       .  D
C15         C163   1.482       .  S
C16          C19   1.379       .  D
C16         C139   1.492       .  S
C17          C20   1.371       .  D
C17         C198   1.484       .  S
C18         C102   1.488       .  S
C19          C67   1.479       .  S
C20         C126   1.479       .  S
O21          C37   1.276       .  A
O21        Zn735   2.028       .  S
C22          O38   1.277       .  A
C22          O35   1.277       .  A
C22         C270   1.487       .  S
O23          C36   1.272       .  A
O23       Cd1092   2.056   1_455  S
O24          C42   1.277       .  A
O24         Cd33   2.084   1_554  S
O25          C39   1.275       .  A
O25        Cd383   2.066   1_545  S
O26          C37   1.275       .  A
O26         Cd29   2.064       .  S
Zn27         O40   2.033   1_556  S
Zn27        O729   2.028   1_455  S
Zn27        O392   2.028       .  S
Zn27       O1094   1.948   1_456  S
O28          C39   1.278       .  A
O28        Cd741   2.094       .  S
Cd29         O31   2.066   1_556  S
Cd29        O379   2.067       .  S
Cd29        O386   1.992   1_556  S
Cd30       O1085   2.056   1_545  S
Cd30        O388   2.064   1_545  S
Cd30        O751   2.052       .  S
Cd30         O32   1.995       .  S
O31          C41   1.274       .  A
O32       Zn1089   1.948   1_544  S
O32        Cd383   1.992   1_544  S
O32        Cd741   2.009   1_554  S
Cd33         O35   2.081       .  S
Cd33        O736   2.094   1_455  S
Cd33        O740   2.009   1_456  S
O34          C41   1.273       .  A
O34        Cd384   2.064       .  S
C36          O40   1.276       .  A
C36         C115   1.482       .  S
C37         C246   1.483       .  S
O38        Zn381   2.028   1_545  S
C39         C211   1.478       .  S
C41          C91   1.481       .  S
C42          O43   1.274       .  A
C42          C78   1.481       .  S
O43        Cd738   2.052   1_455  S
O44          C60   1.275       .  A
O44        Zn404   2.017   1_545  S
C45          O61   1.274       .  A
C45          O58   1.274       .  A
C45         C307   1.482       .  S
O46          C59   1.278       .  A
O46       Cd1115   2.092   1_455  S
O47          C65   1.275       .  A
O47         Cd56   2.062       .  S
O48          C62   1.276       .  A
O48        Cd760   2.076       .  S
O49          C60   1.275       .  A
O49         Cd52   2.073       .  S
Zn50         O63   2.007       .  S
Zn50        O398   2.017       .  S
Zn50        O769   2.019   1_455  S
Zn50       O1117   1.940   1_455  S
O51          C62   1.276       .  A
O51        Cd410   2.073   1_545  S
Cd52         O54   2.065       .  S
Cd52        O756   2.076   1_455  S
Cd52        O763   2.002   1_455  S
Cd53       O1108   2.092   1_545  S
Cd53        O765   2.082       .  S
Cd53        O420   2.088   1_545  S
Cd53         O55   2.013       .  S
O54          C64   1.276       .  A
O55       Zn1112   1.940   1_545  S
O55        Cd760   2.002       .  S
O55        Cd410   1.998   1_545  S
Cd56         O58   2.067       .  S
Cd56        O405   2.073       .  S
Cd56        O409   1.998       .  S
O57          C64   1.277       .  A
O57        Cd761   2.082   1_455  S
C59          O63   1.274       .  A
C59         C187   1.486       .  S
C60         C342   1.483       .  S
O61        Zn758   2.019       .  S
C62         C283   1.485       .  S
C64         C150   1.484       .  S
C65          O66   1.277       .  A
C65         C174   1.483       .  S
O66        Cd407   2.088       .  S
C67          C68   1.401       .  A
C67          C72   1.402       .  A
C68          C69   1.395       .  A
C68          H81   1.083       .  S
C69          C70   1.403       .  A
C69          H82   1.083       .  S
C70          C73   1.485       .  S
C70          C71   1.410       .  A
C71          C72   1.399       .  A
C71          H83   1.081       .  S
C72          H84   1.083       .  S
C73          C74   1.345       .  D
C73          H85   1.085       .  S
C74          C75   1.484       .  S
C74          H86   1.085       .  S
C75          C76   1.401       .  A
C75          C80   1.408       .  A
C76          C77   1.395       .  A
C76          H87   1.084       .  S
C77          C78   1.407       .  A
C77          H88   1.083       .  S
C78          C79   1.405       .  A
C79          C80   1.399       .  A
C79          H89   1.083       .  S
C80          H90   1.082       .  S
C91          C92   1.407       .  A
C91          C96   1.405       .  A
C92          C93   1.398       .  A
C92         H105   1.083       .  S
C93          C94   1.403       .  A
C93         H106   1.083       .  S
C94          C97   1.484       .  S
C94          C95   1.407       .  A
C95          C96   1.395       .  A
C95         H107   1.082       .  S
C96         H108   1.083       .  S
C97          C98   1.346       .  D
C97         H109   1.085       .  S
C98          C99   1.482       .  S
C98         H110   1.085       .  S
C99         C100   1.401       .  A
C99         C104   1.407       .  A
C100        C101   1.394       .  A
C100        H111   1.084       .  S
C101        C102   1.401       .  A
C101        H112   1.075       .  S
C102        C103   1.406       .  A
C103        C104   1.398       .  A
C103        H113   1.082       .  S
C104        H114   1.081       .  S
C115        C116   1.408       .  A
C115        C120   1.405       .  A
C116        C117   1.398       .  A
C116        H129   1.083       .  S
C117        C118   1.402       .  A
C117        H130   1.083       .  S
C118        C121   1.484       .  S
C118        C119   1.408       .  A
C119        C120   1.398       .  A
C119        H131   1.082       .  S
C120        H132   1.083       .  S
C121        C122   1.344       .  D
C121        H133   1.086       .  S
C122        C123   1.481       .  S
C122        H134   1.086       .  S
C123        C124   1.401       .  A
C123        C128   1.408       .  A
C124        C125   1.393       .  A
C124        H135   1.084       .  S
C125        C126   1.398       .  A
C125        H136   1.077       .  S
C126        C127   1.403       .  A
C127        C128   1.401       .  A
C127        H137   1.084       .  S
C128        H138   1.082       .  S
C139        C140   1.402       .  A
C139        C144   1.407       .  A
C140        C141   1.394       .  A
C140        H153   1.078       .  S
C141        C142   1.402       .  A
C141        H154   1.083       .  S
C142        C145   1.488       .  S
C142        C143   1.409       .  A
C143        C144   1.401       .  A
C143        H155   1.081       .  S
C144        H156   1.082       .  S
C145        C146   1.348       .  D
C145        H157   1.084       .  S
C146        C147   1.490       .  S
C146        H158   1.084       .  S
C147        C148   1.404       .  A
C147        C152   1.408       .  A
C148        C149   1.400       .  A
C148        H159   1.083       .  S
C149        C150   1.406       .  A
C149        H160   1.083       .  S
C150        C151   1.406       .  A
C151        C152   1.397       .  A
C151        H161   1.083       .  S
C152        H162   1.081       .  S
C163        C164   1.403       .  A
C163        C168   1.400       .  A
C164        C165   1.399       .  A
C164        H177   1.083       .  S
C165        C166   1.405       .  A
C165        H178   1.083       .  S
C166        C169   1.489       .  S
C166        C167   1.409       .  A
C167        C168   1.398       .  A
C167        H179   1.081       .  S
C168        H180   1.079       .  S
C169        C170   1.347       .  D
C169        H181   1.086       .  S
C170        C171   1.487       .  S
C170        H182   1.085       .  S
C171        C172   1.402       .  A
C171        C176   1.409       .  A
C172        C173   1.396       .  A
C172        H183   1.083       .  S
C173        C174   1.406       .  A
C173        H184   1.083       .  S
C174        C175   1.406       .  A
C175        C176   1.402       .  A
C175        H185   1.083       .  S
C176        H186   1.082       .  S
C187        C188   1.407       .  A
C187        C192   1.406       .  A
C188        C189   1.397       .  A
C188        H201   1.083       .  S
C189        C190   1.402       .  A
C189        H202   1.084       .  S
C190        C193   1.489       .  S
C190        C191   1.410       .  A
C191        C192   1.402       .  A
C191        H203   1.081       .  S
C192        H204   1.083       .  S
C193        C194   1.347       .  D
C193        H205   1.085       .  S
C194        C195   1.490       .  S
C194        H206   1.085       .  S
C195        C196   1.403       .  A
C195        C200   1.411       .  A
C196        C197   1.396       .  A
C196        H207   1.084       .  S
C197        C198   1.403       .  A
C197        H208   1.083       .  S
C198        C199   1.402       .  A
C199        C200   1.402       .  A
C199        H209   1.084       .  S
C200        H210   1.081       .  S
C211        C212   1.405       .  A
C211        C216   1.405       .  A
C212        C213   1.398       .  A
C212        H225   1.084       .  S
C213        C214   1.401       .  A
C213        H226   1.083       .  S
C214        C217   1.481       .  S
C214        C215   1.407       .  A
C215        C216   1.402       .  A
C215        H227   1.083       .  S
C216        H228   1.083       .  S
C217        C218   1.344       .  D
C217        H229   1.086       .  S
C218        C219   1.484       .  S
C218        H230   1.087       .  S
C219        C220   1.402       .  A
C219        C224   1.405       .  A
C220        C221   1.399       .  A
C220        H231   1.083       .  S
C221        C222   1.407       .  A
C221        H232   1.083       .  S
C222        C223   1.404       .  A
C223        C224   1.398       .  A
C223        H233   1.081       .  S
C224        H234   1.083       .  S
C235        C236   1.398       .  A
C235        C240   1.401       .  A
C236        C237   1.398       .  A
C236        H249   1.083       .  S
C237        C238   1.406       .  A
C237        H250   1.083       .  S
C238        C241   1.493       .  S
C238        C239   1.412       .  A
C239        C240   1.398       .  A
C239        H251   1.080       .  S
C240        H252   1.083       .  S
C241        C242   1.349       .  D
C241        H253   1.085       .  S
C242        C243   1.487       .  S
C242        H254   1.082       .  S
C243        C244   1.403       .  A
C243        C248   1.408       .  A
C244        C245   1.396       .  A
C244        H255   1.083       .  S
C245        C246   1.406       .  A
C245        H256   1.083       .  S
C246        C247   1.406       .  A
C247        C248   1.400       .  A
C247        H257   1.083       .  S
C248        H258   1.081       .  S
C259        C260   1.403       .  A
C259        C264   1.402       .  A
C260        C261   1.397       .  A
C260        H273   1.083       .  S
C261        C262   1.405       .  A
C261        H274   1.084       .  S
C262        C265   1.493       .  S
C262        C263   1.411       .  A
C263        C264   1.402       .  A
C263        H275   1.080       .  S
C264        H276   1.084       .  S
C265        C266   1.349       .  D
C265        H277   1.084       .  S
C266        C267   1.494       .  S
C266        H278   1.084       .  S
C267        C268   1.404       .  A
C267        C272   1.410       .  A
C268        C269   1.398       .  A
C268        H279   1.083       .  S
C269        C270   1.406       .  A
C269        H280   1.083       .  S
C270        C271   1.407       .  A
C271        C272   1.402       .  A
C271        H281   1.083       .  S
C272        H282   1.080       .  S
C283        C284   1.407       .  A
C283        C288   1.406       .  A
C284        C285   1.400       .  A
C284        H297   1.083       .  S
C285        C286   1.404       .  A
C285        H298   1.083       .  S
C286        C289   1.489       .  S
C286        C287   1.408       .  A
C287        C288   1.399       .  A
C287        H299   1.082       .  S
C288        H300   1.083       .  S
C289        C290   1.349       .  D
C289        H301   1.085       .  S
C290        C291   1.490       .  S
C290        H302   1.086       .  S
C291        C292   1.405       .  A
C291        C296   1.410       .  A
C292        C293   1.398       .  A
C292        H303   1.083       .  S
C293        C294   1.401       .  A
C293        H304   1.083       .  S
C294        C295   1.404       .  A
C295        C296   1.400       .  A
C295        H305   1.083       .  S
C296        H306   1.080       .  S
C307        C308   1.405       .  A
C307        C312   1.405       .  A
C308        C309   1.398       .  A
C308        H321   1.083       .  S
C309        C310   1.405       .  A
C309        H322   1.083       .  S
C310        C313   1.490       .  S
C310        C311   1.409       .  A
C311        C312   1.398       .  A
C311        H323   1.080       .  S
C312        H324   1.083       .  S
C313        C314   1.349       .  D
C313        H325   1.084       .  S
C314        C315   1.489       .  S
C314        H326   1.083       .  S
C315        C316   1.406       .  A
C315        C320   1.410       .  A
C316        C317   1.398       .  A
C316        H327   1.083       .  S
C317        C318   1.400       .  A
C317        H328   1.083       .  S
C318        C319   1.399       .  A
C319        C320   1.397       .  A
C319        H329   1.080       .  S
C320        H330   1.080       .  S
C331        C332   1.403       .  A
C331        C336   1.405       .  A
C332        C333   1.396       .  A
C332        H345   1.078       .  S
C333        C334   1.402       .  A
C333        H346   1.083       .  S
C334        C337   1.487       .  S
C334        C335   1.409       .  A
C335        C336   1.398       .  A
C335        H347   1.081       .  S
C336        H348   1.082       .  S
C337        C338   1.347       .  D
C337        H349   1.085       .  S
C338        C339   1.487       .  S
C338        H350   1.084       .  S
C339        C340   1.403       .  A
C339        C344   1.409       .  A
C340        C341   1.396       .  A
C340        H351   1.083       .  S
C341        C342   1.406       .  A
C341        H352   1.083       .  S
C342        C343   1.406       .  A
C343        C344   1.399       .  A
C343        H353   1.083       .  S
C344        H354   1.081       .  S
C355        H356   1.111       .  S
C355        C361   1.538       .  S
C355        C360   1.537       .  S
C355        C359   1.533       .  S
C357        H358   1.111       .  S
C357        C363   1.540       .  S
C357        C362   1.537       .  S
C357        C364   1.541       .  S
C359        C362   1.368       .  D
C359        C672   1.478       .  S
C360        C363   1.379       .  D
C360        C685   1.490       .  S
C361        C364   1.381       .  D
C361        C648   1.486       .  S
C362        C589   1.479       .  S
C363        C613   1.485       .  S
C364        C576   1.494       .  S
C365        H366   1.110       .  S
C365        C371   1.540       .  S
C365        C370   1.544       .  S
C365        C369   1.541       .  S
C367        H368   1.111       .  S
C367        C373   1.534       .  S
C367        C372   1.534       .  S
C367        C374   1.530       .  S
C369        C372   1.374       .  D
C369        C517   1.482       .  S
C370        C373   1.379       .  D
C370        C493   1.492       .  S
C371        C374   1.371       .  D
C371        C552   1.484       .  S
C372        C456   1.488       .  S
C373        C421   1.479       .  S
C374        C480   1.479       .  S
O375        C391   1.276       .  A
O375      Zn1089   2.028       .  S
C376        O392   1.277       .  A
C376        O389   1.277       .  A
C376        C624   1.487       .  S
O377        C390   1.272       .  A
O377       Cd738   2.056   1_465  S
O378        C396   1.277       .  A
O378       Cd387   2.084   1_554  S
O379        C393   1.275       .  A
O380        C391   1.275       .  A
O380       Cd383   2.064       .  S
Zn381      O1083   2.028   1_455  S
Zn381       O394   2.033   1_556  S
Zn381       O740   1.948   1_466  S
O382        C393   1.278       .  A
O382      Cd1095   2.094       .  S
Cd383       O385   2.066   1_556  S
Cd384       O731   2.056       .  S
Cd384      O1105   2.053       .  S
Cd384       O386   1.995       .  S
O385        C395   1.274       .  A
O386       Zn735   1.948   1_554  S
O386      Cd1095   2.009   1_554  S
Cd387      O1090   2.094   1_455  S
Cd387       O389   2.081       .  S
Cd387      O1094   2.009   1_456  S
O388        C395   1.273       .  A
C390        O394   1.276       .  A
C390        C469   1.482       .  S
C391        C600   1.483       .  S
C393        C565   1.478       .  S
C395        C445   1.480       .  S
C396        O397   1.274       .  A
C396        C432   1.481       .  S
O397      Cd1092   2.052   1_455  S
O398        C414   1.275       .  A
C399        O415   1.274       .  A
C399        O412   1.274       .  A
C399        C661   1.482       .  S
O400        C413   1.278       .  A
O400       Cd761   2.092   1_465  S
O401        C419   1.275       .  A
O401       Cd410   2.062       .  S
O402        C416   1.276       .  A
O402      Cd1114   2.076       .  S
O403        C414   1.275       .  A
O403       Cd406   2.073       .  S
Zn404      O1123   2.019   1_455  S
Zn404       O417   2.007       .  S
Zn404       O763   1.940   1_465  S
O405        C416   1.276       .  A
Cd406      O1110   2.076   1_455  S
Cd406       O408   2.065       .  S
Cd406      O1117   2.002   1_455  S
Cd407       O754   2.092       .  S
Cd407      O1119   2.082       .  S
Cd407       O409   2.013       .  S
O408        C418   1.276       .  A
O409       Zn758   1.940       .  S
O409      Cd1114   2.002       .  S
Cd410       O412   2.067       .  S
O411        C418   1.277       .  A
O411      Cd1115   2.082   1_455  S
C413        O417   1.274       .  A
C413        C541   1.486       .  S
C414        C696   1.483       .  S
O415      Zn1112   2.019       .  S
C416        C637   1.486       .  S
C418        C504   1.484       .  S
C419        O420   1.277       .  A
C419        C528   1.483       .  S
C421        C422   1.401       .  A
C421        C426   1.402       .  A
C422        C423   1.395       .  A
C422        H435   1.083       .  S
C423        C424   1.403       .  A
C423        H436   1.083       .  S
C424        C427   1.485       .  S
C424        C425   1.410       .  A
C425        C426   1.399       .  A
C425        H437   1.081       .  S
C426        H438   1.083       .  S
C427        C428   1.345       .  D
C427        H439   1.085       .  S
C428        C429   1.484       .  S
C428        H440   1.085       .  S
C429        C430   1.401       .  A
C429        C434   1.408       .  A
C430        C431   1.395       .  A
C430        H441   1.084       .  S
C431        C432   1.407       .  A
C431        H442   1.083       .  S
C432        C433   1.405       .  A
C433        C434   1.399       .  A
C433        H443   1.083       .  S
C434        H444   1.082       .  S
C445        C446   1.407       .  A
C445        C450   1.405       .  A
C446        C447   1.398       .  A
C446        H459   1.083       .  S
C447        C448   1.403       .  A
C447        H460   1.083       .  S
C448        C451   1.484       .  S
C448        C449   1.407       .  A
C449        C450   1.395       .  A
C449        H461   1.082       .  S
C450        H462   1.083       .  S
C451        C452   1.346       .  D
C451        H463   1.085       .  S
C452        C453   1.482       .  S
C452        H464   1.085       .  S
C453        C454   1.401       .  A
C453        C458   1.407       .  A
C454        C455   1.394       .  A
C454        H465   1.084       .  S
C455        C456   1.401       .  A
C455        H466   1.075       .  S
C456        C457   1.406       .  A
C457        C458   1.398       .  A
C457        H467   1.082       .  S
C458        H468   1.081       .  S
C469        C470   1.408       .  A
C469        C474   1.405       .  A
C470        C471   1.398       .  A
C470        H483   1.083       .  S
C471        C472   1.402       .  A
C471        H484   1.083       .  S
C472        C475   1.484       .  S
C472        C473   1.408       .  A
C473        C474   1.398       .  A
C473        H485   1.082       .  S
C474        H486   1.083       .  S
C475        C476   1.344       .  D
C475        H487   1.086       .  S
C476        C477   1.481       .  S
C476        H488   1.086       .  S
C477        C478   1.401       .  A
C477        C482   1.408       .  A
C478        C479   1.393       .  A
C478        H489   1.084       .  S
C479        C480   1.398       .  A
C479        H490   1.077       .  S
C480        C481   1.403       .  A
C481        C482   1.401       .  A
C481        H491   1.084       .  S
C482        H492   1.082       .  S
C493        C494   1.402       .  A
C493        C498   1.407       .  A
C494        C495   1.394       .  A
C494        H507   1.078       .  S
C495        C496   1.402       .  A
C495        H508   1.084       .  S
C496        C499   1.488       .  S
C496        C497   1.409       .  A
C497        C498   1.401       .  A
C497        H509   1.081       .  S
C498        H510   1.082       .  S
C499        C500   1.348       .  D
C499        H511   1.084       .  S
C500        C501   1.490       .  S
C500        H512   1.084       .  S
C501        C502   1.404       .  A
C501        C506   1.408       .  A
C502        C503   1.400       .  A
C502        H513   1.083       .  S
C503        C504   1.406       .  A
C503        H514   1.083       .  S
C504        C505   1.406       .  A
C505        C506   1.397       .  A
C505        H515   1.083       .  S
C506        H516   1.081       .  S
C517        C518   1.403       .  A
C517        C522   1.400       .  A
C518        C519   1.399       .  A
C518        H531   1.083       .  S
C519        C520   1.405       .  A
C519        H532   1.083       .  S
C520        C523   1.489       .  S
C520        C521   1.409       .  A
C521        C522   1.398       .  A
C521        H533   1.081       .  S
C522        H534   1.079       .  S
C523        C524   1.347       .  D
C523        H535   1.086       .  S
C524        C525   1.487       .  S
C524        H536   1.085       .  S
C525        C526   1.402       .  A
C525        C530   1.409       .  A
C526        C527   1.396       .  A
C526        H537   1.083       .  S
C527        C528   1.406       .  A
C527        H538   1.083       .  S
C528        C529   1.406       .  A
C529        C530   1.402       .  A
C529        H539   1.083       .  S
C530        H540   1.082       .  S
C541        C542   1.407       .  A
C541        C546   1.406       .  A
C542        C543   1.397       .  A
C542        H555   1.083       .  S
C543        C544   1.402       .  A
C543        H556   1.084       .  S
C544        C547   1.489       .  S
C544        C545   1.410       .  A
C545        C546   1.402       .  A
C545        H557   1.081       .  S
C546        H558   1.083       .  S
C547        C548   1.347       .  D
C547        H559   1.085       .  S
C548        C549   1.490       .  S
C548        H560   1.085       .  S
C549        C550   1.403       .  A
C549        C554   1.411       .  A
C550        C551   1.396       .  A
C550        H561   1.084       .  S
C551        C552   1.403       .  A
C551        H562   1.083       .  S
C552        C553   1.402       .  A
C553        C554   1.402       .  A
C553        H563   1.084       .  S
C554        H564   1.081       .  S
C565        C566   1.405       .  A
C565        C570   1.405       .  A
C566        C567   1.398       .  A
C566        H579   1.084       .  S
C567        C568   1.401       .  A
C567        H580   1.083       .  S
C568        C571   1.481       .  S
C568        C569   1.407       .  A
C569        C570   1.402       .  A
C569        H581   1.083       .  S
C570        H582   1.083       .  S
C571        C572   1.344       .  D
C571        H583   1.086       .  S
C572        C573   1.484       .  S
C572        H584   1.087       .  S
C573        C574   1.402       .  A
C573        C578   1.405       .  A
C574        C575   1.399       .  A
C574        H585   1.083       .  S
C575        C576   1.407       .  A
C575        H586   1.083       .  S
C576        C577   1.404       .  A
C577        C578   1.398       .  A
C577        H587   1.081       .  S
C578        H588   1.083       .  S
C589        C590   1.398       .  A
C589        C594   1.401       .  A
C590        C591   1.398       .  A
C590        H603   1.083       .  S
C591        C592   1.406       .  A
C591        H604   1.083       .  S
C592        C595   1.493       .  S
C592        C593   1.412       .  A
C593        C594   1.398       .  A
C593        H605   1.080       .  S
C594        H606   1.083       .  S
C595        C596   1.349       .  D
C595        H607   1.085       .  S
C596        C597   1.487       .  S
C596        H608   1.082       .  S
C597        C598   1.403       .  A
C597        C602   1.408       .  A
C598        C599   1.396       .  A
C598        H609   1.083       .  S
C599        C600   1.406       .  A
C599        H610   1.083       .  S
C600        C601   1.406       .  A
C601        C602   1.400       .  A
C601        H611   1.083       .  S
C602        H612   1.081       .  S
C613        C614   1.403       .  A
C613        C618   1.402       .  A
C614        C615   1.397       .  A
C614        H627   1.083       .  S
C615        C616   1.405       .  A
C615        H628   1.084       .  S
C616        C619   1.493       .  S
C616        C617   1.411       .  A
C617        C618   1.402       .  A
C617        H629   1.080       .  S
C618        H630   1.084       .  S
C619        C620   1.350       .  D
C619        H631   1.084       .  S
C620        C621   1.494       .  S
C620        H632   1.084       .  S
C621        C622   1.404       .  A
C621        C626   1.410       .  A
C622        C623   1.398       .  A
C622        H633   1.083       .  S
C623        C624   1.406       .  A
C623        H634   1.083       .  S
C624        C625   1.407       .  A
C625        C626   1.402       .  A
C625        H635   1.083       .  S
C626        H636   1.080       .  S
C637        C638   1.407       .  A
C637        C642   1.406       .  A
C638        C639   1.400       .  A
C638        H651   1.083       .  S
C639        C640   1.404       .  A
C639        H652   1.083       .  S
C640        C643   1.489       .  S
C640        C641   1.408       .  A
C641        C642   1.399       .  A
C641        H653   1.082       .  S
C642        H654   1.083       .  S
C643        C644   1.349       .  D
C643        H655   1.085       .  S
C644        C645   1.490       .  S
C644        H656   1.086       .  S
C645        C646   1.405       .  A
C645        C650   1.410       .  A
C646        C647   1.398       .  A
C646        H657   1.083       .  S
C647        C648   1.401       .  A
C647        H658   1.083       .  S
C648        C649   1.404       .  A
C649        C650   1.400       .  A
C649        H659   1.083       .  S
C650        H660   1.080       .  S
C661        C662   1.405       .  A
C661        C666   1.405       .  A
C662        C663   1.398       .  A
C662        H675   1.083       .  S
C663        C664   1.405       .  A
C663        H676   1.083       .  S
C664        C667   1.490       .  S
C664        C665   1.409       .  A
C665        C666   1.398       .  A
C665        H677   1.080       .  S
C666        H678   1.083       .  S
C667        C668   1.349       .  D
C667        H679   1.084       .  S
C668        C669   1.489       .  S
C668        H680   1.083       .  S
C669        C670   1.406       .  A
C669        C674   1.410       .  A
C670        C671   1.398       .  A
C670        H681   1.083       .  S
C671        C672   1.400       .  A
C671        H682   1.083       .  S
C672        C673   1.399       .  A
C673        C674   1.397       .  A
C673        H683   1.080       .  S
C674        H684   1.080       .  S
C685        C686   1.403       .  A
C685        C690   1.405       .  A
C686        C687   1.396       .  A
C686        H699   1.078       .  S
C687        C688   1.402       .  A
C687        H700   1.083       .  S
C688        C691   1.487       .  S
C688        C689   1.409       .  A
C689        C690   1.398       .  A
C689        H701   1.081       .  S
C690        H702   1.082       .  S
C691        C692   1.347       .  D
C691        H703   1.085       .  S
C692        C693   1.487       .  S
C692        H704   1.084       .  S
C693        C694   1.403       .  A
C693        C698   1.409       .  A
C694        C695   1.396       .  A
C694        H705   1.083       .  S
C695        C696   1.406       .  A
C695        H706   1.083       .  S
C696        C697   1.406       .  A
C697        C698   1.399       .  A
C697        H707   1.083       .  S
C698        H708   1.081       .  S
C709        H710   1.111       .  S
C709        C715   1.538       .  S
C709        C714   1.537       .  S
C709        C713   1.533       .  S
C711        H712   1.111       .  S
C711        C717   1.540       .  S
C711        C716   1.537       .  S
C711        C718   1.541       .  S
C713        C716   1.368       .  D
C713       C1026   1.478       .  S
C714        C717   1.379       .  D
C714       C1039   1.490       .  S
C715        C718   1.381       .  D
C715       C1002   1.486       .  S
C716        C943   1.479       .  S
C717        C967   1.485       .  S
C718        C930   1.494       .  S
C719        H720   1.110       .  S
C719        C725   1.540       .  S
C719        C724   1.544       .  S
C719        C723   1.541       .  S
C721        H722   1.111       .  S
C721        C727   1.534       .  S
C721        C726   1.534       .  S
C721        C728   1.530       .  S
C723        C726   1.374       .  D
C723        C871   1.482       .  S
C724        C727   1.379       .  D
C724        C847   1.492       .  S
C725        C728   1.371       .  D
C725        C906   1.484       .  S
C726        C810   1.488       .  S
C727        C775   1.479       .  S
C728        C834   1.479       .  S
O729        C745   1.276       .  A
C730        O746   1.277       .  A
C730        O743   1.277       .  A
C730        C978   1.487       .  S
O731        C744   1.272       .  A
O732        C750   1.277       .  A
O732       Cd741   2.084   1_554  S
O733        C747   1.275       .  A
O733      Cd1091   2.067   1_545  S
O734        C745   1.275       .  A
O734       Cd737   2.064       .  S
Zn735      O1100   2.028       .  S
Zn735       O748   2.033   1_556  S
O736        C747   1.278       .  A
Cd737      O1087   2.066       .  S
Cd737       O739   2.066   1_556  S
Cd737      O1094   1.992   1_556  S
Cd738      O1096   2.064   1_545  S
Cd738       O740   1.995       .  S
O739        C749   1.274       .  A
O740      Cd1091   1.992   1_544  S
Cd741       O743   2.081       .  S
O742        C749   1.273       .  A
O742      Cd1092   2.064       .  S
C744        O748   1.276       .  A
C744        C823   1.482       .  S
C745        C954   1.483       .  S
O746      Zn1089   2.028   1_545  S
C747        C919   1.478       .  S
C749        C799   1.480       .  S
C750        O751   1.274       .  A
C750        C786   1.481       .  S
O752        C768   1.275       .  A
O752      Zn1112   2.017   1_545  S
C753        O769   1.274       .  A
C753        O766   1.274       .  A
C753       C1015   1.482       .  S
O754        C767   1.278       .  A
O755        C773   1.275       .  A
O755       Cd764   2.062       .  S
O756        C770   1.276       .  A
O757        C768   1.275       .  A
O757       Cd760   2.073       .  S
Zn758      O1106   2.017       .  S
Zn758       O771   2.007       .  S
O759        C770   1.276       .  A
O759      Cd1118   2.073   1_545  S
Cd760       O762   2.065       .  S
Cd761      O1128   2.088   1_545  S
Cd761       O763   2.013       .  S
O762        C772   1.276       .  A
O763      Cd1118   1.998   1_545  S
Cd764      O1113   2.073       .  S
Cd764       O766   2.067       .  S
Cd764      O1117   1.997       .  S
O765        C772   1.277       .  A
C767        O771   1.274       .  A
C767        C895   1.486       .  S
C768       C1050   1.483       .  S
C770        C991   1.486       .  S
C772        C858   1.484       .  S
C773        O774   1.277       .  A
C773        C882   1.483       .  S
O774      Cd1115   2.088       .  S
C775        C776   1.401       .  A
C775        C780   1.402       .  A
C776        C777   1.395       .  A
C776        H789   1.083       .  S
C777        C778   1.403       .  A
C777        H790   1.083       .  S
C778        C781   1.485       .  S
C778        C779   1.410       .  A
C779        C780   1.399       .  A
C779        H791   1.081       .  S
C780        H792   1.083       .  S
C781        C782   1.345       .  D
C781        H793   1.085       .  S
C782        C783   1.484       .  S
C782        H794   1.085       .  S
C783        C784   1.401       .  A
C783        C788   1.408       .  A
C784        C785   1.395       .  A
C784        H795   1.084       .  S
C785        C786   1.407       .  A
C785        H796   1.083       .  S
C786        C787   1.405       .  A
C787        C788   1.399       .  A
C787        H797   1.083       .  S
C788        H798   1.082       .  S
C799        C800   1.407       .  A
C799        C804   1.405       .  A
C800        C801   1.398       .  A
C800        H813   1.083       .  S
C801        C802   1.403       .  A
C801        H814   1.083       .  S
C802        C805   1.484       .  S
C802        C803   1.407       .  A
C803        C804   1.395       .  A
C803        H815   1.082       .  S
C804        H816   1.083       .  S
C805        C806   1.346       .  D
C805        H817   1.085       .  S
C806        C807   1.482       .  S
C806        H818   1.085       .  S
C807        C808   1.401       .  A
C807        C812   1.407       .  A
C808        C809   1.394       .  A
C808        H819   1.084       .  S
C809        C810   1.401       .  A
C809        H820   1.075       .  S
C810        C811   1.406       .  A
C811        C812   1.398       .  A
C811        H821   1.082       .  S
C812        H822   1.081       .  S
C823        C824   1.408       .  A
C823        C828   1.405       .  A
C824        C825   1.398       .  A
C824        H837   1.083       .  S
C825        C826   1.402       .  A
C825        H838   1.083       .  S
C826        C829   1.484       .  S
C826        C827   1.408       .  A
C827        C828   1.398       .  A
C827        H839   1.082       .  S
C828        H840   1.083       .  S
C829        C830   1.344       .  D
C829        H841   1.086       .  S
C830        C831   1.481       .  S
C830        H842   1.086       .  S
C831        C832   1.401       .  A
C831        C836   1.408       .  A
C832        C833   1.393       .  A
C832        H843   1.084       .  S
C833        C834   1.398       .  A
C833        H844   1.077       .  S
C834        C835   1.403       .  A
C835        C836   1.401       .  A
C835        H845   1.084       .  S
C836        H846   1.082       .  S
C847        C848   1.402       .  A
C847        C852   1.407       .  A
C848        C849   1.394       .  A
C848        H861   1.078       .  S
C849        C850   1.402       .  A
C849        H862   1.084       .  S
C850        C853   1.488       .  S
C850        C851   1.409       .  A
C851        C852   1.401       .  A
C851        H863   1.081       .  S
C852        H864   1.082       .  S
C853        C854   1.348       .  D
C853        H865   1.084       .  S
C854        C855   1.490       .  S
C854        H866   1.084       .  S
C855        C856   1.404       .  A
C855        C860   1.408       .  A
C856        C857   1.400       .  A
C856        H867   1.083       .  S
C857        C858   1.406       .  A
C857        H868   1.083       .  S
C858        C859   1.406       .  A
C859        C860   1.397       .  A
C859        H869   1.083       .  S
C860        H870   1.081       .  S
C871        C872   1.403       .  A
C871        C876   1.400       .  A
C872        C873   1.399       .  A
C872        H885   1.083       .  S
C873        C874   1.405       .  A
C873        H886   1.083       .  S
C874        C877   1.489       .  S
C874        C875   1.409       .  A
C875        C876   1.398       .  A
C875        H887   1.081       .  S
C876        H888   1.079       .  S
C877        C878   1.347       .  D
C877        H889   1.086       .  S
C878        C879   1.487       .  S
C878        H890   1.085       .  S
C879        C880   1.402       .  A
C879        C884   1.409       .  A
C880        C881   1.396       .  A
C880        H891   1.083       .  S
C881        C882   1.406       .  A
C881        H892   1.083       .  S
C882        C883   1.406       .  A
C883        C884   1.402       .  A
C883        H893   1.083       .  S
C884        H894   1.082       .  S
C895        C896   1.407       .  A
C895        C900   1.406       .  A
C896        C897   1.397       .  A
C896        H909   1.083       .  S
C897        C898   1.402       .  A
C897        H910   1.084       .  S
C898        C901   1.489       .  S
C898        C899   1.410       .  A
C899        C900   1.402       .  A
C899        H911   1.081       .  S
C900        H912   1.083       .  S
C901        C902   1.347       .  D
C901        H913   1.085       .  S
C902        C903   1.490       .  S
C902        H914   1.086       .  S
C903        C904   1.403       .  A
C903        C908   1.411       .  A
C904        C905   1.396       .  A
C904        H915   1.083       .  S
C905        C906   1.403       .  A
C905        H916   1.083       .  S
C906        C907   1.402       .  A
C907        C908   1.402       .  A
C907        H917   1.084       .  S
C908        H918   1.080       .  S
C919        C920   1.405       .  A
C919        C924   1.405       .  A
C920        C921   1.398       .  A
C920        H933   1.084       .  S
C921        C922   1.401       .  A
C921        H934   1.083       .  S
C922        C925   1.481       .  S
C922        C923   1.407       .  A
C923        C924   1.402       .  A
C923        H935   1.083       .  S
C924        H936   1.083       .  S
C925        C926   1.344       .  D
C925        H937   1.086       .  S
C926        C927   1.484       .  S
C926        H938   1.087       .  S
C927        C928   1.402       .  A
C927        C932   1.405       .  A
C928        C929   1.399       .  A
C928        H939   1.083       .  S
C929        C930   1.407       .  A
C929        H940   1.083       .  S
C930        C931   1.404       .  A
C931        C932   1.398       .  A
C931        H941   1.081       .  S
C932        H942   1.083       .  S
C943        C944   1.398       .  A
C943        C948   1.401       .  A
C944        C945   1.398       .  A
C944        H957   1.083       .  S
C945        C946   1.406       .  A
C945        H958   1.083       .  S
C946        C949   1.493       .  S
C946        C947   1.412       .  A
C947        C948   1.398       .  A
C947        H959   1.080       .  S
C948        H960   1.083       .  S
C949        C950   1.349       .  D
C949        H961   1.085       .  S
C950        C951   1.487       .  S
C950        H962   1.082       .  S
C951        C952   1.403       .  A
C951        C956   1.408       .  A
C952        C953   1.396       .  A
C952        H963   1.083       .  S
C953        C954   1.406       .  A
C953        H964   1.083       .  S
C954        C955   1.406       .  A
C955        C956   1.400       .  A
C955        H965   1.083       .  S
C956        H966   1.081       .  S
C967        C968   1.403       .  A
C967        C972   1.402       .  A
C968        C969   1.397       .  A
C968        H981   1.083       .  S
C969        C970   1.405       .  A
C969        H982   1.084       .  S
C970        C973   1.493       .  S
C970        C971   1.411       .  A
C971        C972   1.402       .  A
C971        H983   1.080       .  S
C972        H984   1.084       .  S
C973        C974   1.350       .  D
C973        H985   1.084       .  S
C974        C975   1.494       .  S
C974        H986   1.084       .  S
C975        C976   1.404       .  A
C975        C980   1.410       .  A
C976        C977   1.398       .  A
C976        H987   1.083       .  S
C977        C978   1.406       .  A
C977        H988   1.083       .  S
C978        C979   1.407       .  A
C979        C980   1.402       .  A
C979        H989   1.083       .  S
C980        H990   1.080       .  S
C991        C992   1.407       .  A
C991        C996   1.406       .  A
C992        C993   1.400       .  A
C992       H1005   1.083   1_655  S
C993        C994   1.404       .  A
C993       H1006   1.083       .  S
C994        C997   1.489       .  S
C994        C995   1.408       .  A
C995        C996   1.399       .  A
C995       H1007   1.082       .  S
C996       H1008   1.083       .  S
C997        C998   1.349       .  D
C997       H1009   1.085       .  S
C998        C999   1.490       .  S
C998       H1010   1.086       .  S
C999       C1000   1.405       .  A
C999       C1004   1.410       .  A
C1000      C1001   1.398       .  A
C1000      H1011   1.083       .  S
C1001      C1002   1.401       .  A
C1001      H1012   1.083       .  S
C1002      C1003   1.404       .  A
C1003      C1004   1.400       .  A
C1003      H1013   1.083       .  S
C1004      H1014   1.080       .  S
C1015      C1016   1.405       .  A
C1015      C1020   1.405       .  A
C1016      C1017   1.398       .  A
C1016      H1029   1.083       .  S
C1017      C1018   1.405       .  A
C1017      H1030   1.083       .  S
C1018      C1021   1.490       .  S
C1018      C1019   1.409       .  A
C1019      C1020   1.398       .  A
C1019      H1031   1.080       .  S
C1020      H1032   1.083       .  S
C1021      C1022   1.349       .  D
C1021      H1033   1.084       .  S
C1022      C1023   1.489       .  S
C1022      H1034   1.083       .  S
C1023      C1024   1.406       .  A
C1023      C1028   1.410       .  A
C1024      C1025   1.398       .  A
C1024      H1035   1.083       .  S
C1025      C1026   1.400       .  A
C1025      H1036   1.083       .  S
C1026      C1027   1.399       .  A
C1027      C1028   1.397       .  A
C1027      H1037   1.080       .  S
C1028      H1038   1.080       .  S
C1039      C1040   1.403       .  A
C1039      C1044   1.405       .  A
C1040      C1041   1.396       .  A
C1040      H1053   1.078       .  S
C1041      C1042   1.402       .  A
C1041      H1054   1.083       .  S
C1042      C1045   1.487       .  S
C1042      C1043   1.409       .  A
C1043      C1044   1.398       .  A
C1043      H1055   1.081       .  S
C1044      H1056   1.082       .  S
C1045      C1046   1.347       .  D
C1045      H1057   1.085       .  S
C1046      C1047   1.487       .  S
C1046      H1058   1.084       .  S
C1047      C1048   1.403       .  A
C1047      C1052   1.409       .  A
C1048      C1049   1.396       .  A
C1048      H1059   1.083       .  S
C1049      C1050   1.406       .  A
C1049      H1060   1.083       .  S
C1050      C1051   1.406       .  A
C1051      C1052   1.399       .  A
C1051      H1061   1.083       .  S
C1052      H1062   1.081       .  S
C1063      H1064   1.111       .  S
C1063      C1069   1.538       .  S
C1063      C1068   1.537       .  S
C1063      C1067   1.533       .  S
C1065      H1066   1.111       .  S
C1065      C1071   1.540       .  S
C1065      C1070   1.537       .  S
C1065      C1072   1.541       .  S
C1067      C1070   1.368       .  D
C1067      C1380   1.478       .  S
C1068      C1071   1.379       .  D
C1068      C1393   1.490       .  S
C1069      C1072   1.381       .  D
C1069      C1356   1.486       .  S
C1070      C1297   1.479       .  S
C1071      C1321   1.485       .  S
C1072      C1284   1.494       .  S
C1073      H1074   1.110       .  S
C1073      C1079   1.540       .  S
C1073      C1078   1.544       .  S
C1073      C1077   1.541       .  S
C1075      H1076   1.111       .  S
C1075      C1081   1.534       .  S
C1075      C1080   1.534       .  S
C1075      C1082   1.530       .  S
C1077      C1080   1.374       .  D
C1077      C1225   1.482       .  S
C1078      C1081   1.379       .  D
C1078      C1201   1.492       .  S
C1079      C1082   1.371       .  D
C1079      C1260   1.484       .  S
C1080      C1164   1.488       .  S
C1081      C1129   1.479       .  S
C1082      C1188   1.479       .  S
O1083      C1099   1.276       .  A
C1084      O1100   1.277       .  A
C1084      O1097   1.277       .  A
C1084      C1332   1.487       .  S
O1085      C1098   1.272       .  A
O1086      C1104   1.277       .  A
O1086     Cd1095   2.084   1_554  S
O1087      C1101   1.275       .  A
O1088      C1099   1.275       .  A
O1088     Cd1091   2.064       .  S
Zn1089     O1102   2.033   1_556  S
O1090      C1101   1.278       .  A
Cd1091     O1093   2.066   1_556  S
Cd1092     O1094   1.995       .  S
O1093      C1103   1.274       .  A
Cd1095     O1097   2.081       .  S
O1096      C1103   1.273       .  A
C1098      O1102   1.276       .  A
C1098      C1177   1.482       .  S
C1099      C1308   1.483       .  S
C1101      C1273   1.478       .  S
C1103      C1153   1.481       .  S
C1104      O1105   1.274       .  A
C1104      C1140   1.481       .  S
O1106      C1122   1.275       .  A
C1107      O1123   1.274       .  A
C1107      O1120   1.274       .  A
C1107      C1369   1.482       .  S
O1108      C1121   1.278       .  A
O1109      C1127   1.275       .  A
O1109     Cd1118   2.062       .  S
O1110      C1124   1.276       .  A
O1111      C1122   1.275       .  A
O1111     Cd1114   2.073       .  S
Zn1112     O1125   2.007       .  S
O1113      C1124   1.276       .  A
Cd1114     O1116   2.065       .  S
Cd1115     O1117   2.013       .  S
O1116      C1126   1.276       .  A
Cd1118     O1120   2.067       .  S
O1119      C1126   1.277       .  A
C1121      O1125   1.274       .  A
C1121      C1249   1.486       .  S
C1122      C1404   1.483       .  S
C1124      C1345   1.485       .  S
C1126      C1212   1.484       .  S
C1127      O1128   1.277       .  A
C1127      C1236   1.483       .  S
C1129      C1130   1.401       .  A
C1129      C1134   1.402       .  A
C1130      C1131   1.395       .  A
C1130      H1143   1.083       .  S
C1131      C1132   1.403       .  A
C1131      H1144   1.083       .  S
C1132      C1135   1.485       .  S
C1132      C1133   1.410       .  A
C1133      C1134   1.399       .  A
C1133      H1145   1.081       .  S
C1134      H1146   1.083       .  S
C1135      C1136   1.345       .  D
C1135      H1147   1.086       .  S
C1136      C1137   1.484       .  S
C1136      H1148   1.085       .  S
C1137      C1138   1.401       .  A
C1137      C1142   1.408       .  A
C1138      C1139   1.395       .  A
C1138      H1149   1.084       .  S
C1139      C1140   1.407       .  A
C1139      H1150   1.083       .  S
C1140      C1141   1.405       .  A
C1141      C1142   1.399       .  A
C1141      H1151   1.083       .  S
C1142      H1152   1.082       .  S
C1153      C1154   1.407       .  A
C1153      C1158   1.405       .  A
C1154      C1155   1.398       .  A
C1154      H1167   1.083       .  S
C1155      C1156   1.403       .  A
C1155      H1168   1.083       .  S
C1156      C1159   1.484       .  S
C1156      C1157   1.407       .  A
C1157      C1158   1.395       .  A
C1157      H1169   1.082       .  S
C1158      H1170   1.083       .  S
C1159      C1160   1.346       .  D
C1159      H1171   1.085       .  S
C1160      C1161   1.482       .  S
C1160      H1172   1.085       .  S
C1161      C1162   1.401       .  A
C1161      C1166   1.407       .  A
C1162      C1163   1.394       .  A
C1162      H1173   1.084       .  S
C1163      C1164   1.401       .  A
C1163      H1174   1.075       .  S
C1164      C1165   1.406       .  A
C1165      C1166   1.398       .  A
C1165      H1175   1.082       .  S
C1166      H1176   1.081       .  S
C1177      C1178   1.408       .  A
C1177      C1182   1.405       .  A
C1178      C1179   1.398       .  A
C1178      H1191   1.083       .  S
C1179      C1180   1.402       .  A
C1179      H1192   1.083       .  S
C1180      C1183   1.484       .  S
C1180      C1181   1.408       .  A
C1181      C1182   1.398       .  A
C1181      H1193   1.082       .  S
C1182      H1194   1.083       .  S
C1183      C1184   1.344       .  D
C1183      H1195   1.086       .  S
C1184      C1185   1.481       .  S
C1184      H1196   1.086       .  S
C1185      C1186   1.401       .  A
C1185      C1190   1.408       .  A
C1186      C1187   1.393       .  A
C1186      H1197   1.084       .  S
C1187      C1188   1.398       .  A
C1187      H1198   1.077       .  S
C1188      C1189   1.403       .  A
C1189      C1190   1.401       .  A
C1189      H1199   1.084       .  S
C1190      H1200   1.082       .  S
C1201      C1202   1.402       .  A
C1201      C1206   1.407       .  A
C1202      C1203   1.394       .  A
C1202      H1215   1.078       .  S
C1203      C1204   1.402       .  A
C1203      H1216   1.083       .  S
C1204      C1207   1.488       .  S
C1204      C1205   1.409       .  A
C1205      C1206   1.401       .  A
C1205      H1217   1.081       .  S
C1206      H1218   1.082       .  S
C1207      C1208   1.348       .  D
C1207      H1219   1.084       .  S
C1208      C1209   1.490       .  S
C1208      H1220   1.084       .  S
C1209      C1210   1.404       .  A
C1209      C1214   1.408       .  A
C1210      C1211   1.400       .  A
C1210      H1221   1.083       .  S
C1211      C1212   1.406       .  A
C1211      H1222   1.083       .  S
C1212      C1213   1.406       .  A
C1213      C1214   1.397       .  A
C1213      H1223   1.083       .  S
C1214      H1224   1.081       .  S
C1225      C1226   1.403       .  A
C1225      C1230   1.400       .  A
C1226      C1227   1.399       .  A
C1226      H1239   1.083       .  S
C1227      C1228   1.405       .  A
C1227      H1240   1.083       .  S
C1228      C1231   1.489       .  S
C1228      C1229   1.409       .  A
C1229      C1230   1.398       .  A
C1229      H1241   1.081       .  S
C1230      H1242   1.079       .  S
C1231      C1232   1.347       .  D
C1231      H1243   1.086       .  S
C1232      C1233   1.487       .  S
C1232      H1244   1.085       .  S
C1233      C1234   1.402       .  A
C1233      C1238   1.409       .  A
C1234      C1235   1.396       .  A
C1234      H1245   1.083       .  S
C1235      C1236   1.406       .  A
C1235      H1246   1.083       .  S
C1236      C1237   1.406       .  A
C1237      C1238   1.402       .  A
C1237      H1247   1.083       .  S
C1238      H1248   1.082       .  S
C1249      C1250   1.407       .  A
C1249      C1254   1.406       .  A
C1250      C1251   1.397       .  A
C1250      H1263   1.083       .  S
C1251      C1252   1.402       .  A
C1251      H1264   1.084       .  S
C1252      C1255   1.489       .  S
C1252      C1253   1.410       .  A
C1253      C1254   1.402       .  A
C1253      H1265   1.081       .  S
C1254      H1266   1.083       .  S
C1255      C1256   1.347       .  D
C1255      H1267   1.085       .  S
C1256      C1257   1.490       .  S
C1256      H1268   1.086       .  S
C1257      C1258   1.403       .  A
C1257      C1262   1.411       .  A
C1258      C1259   1.396       .  A
C1258      H1269   1.083       .  S
C1259      C1260   1.403       .  A
C1259      H1270   1.083       .  S
C1260      C1261   1.402       .  A
C1261      C1262   1.402       .  A
C1261      H1271   1.084       .  S
C1262      H1272   1.081       .  S
C1273      C1274   1.405       .  A
C1273      C1278   1.405       .  A
C1274      C1275   1.398       .  A
C1274      H1287   1.084       .  S
C1275      C1276   1.401       .  A
C1275      H1288   1.083       .  S
C1276      C1279   1.481       .  S
C1276      C1277   1.407       .  A
C1277      C1278   1.402       .  A
C1277      H1289   1.083       .  S
C1278      H1290   1.083       .  S
C1279      C1280   1.344       .  D
C1279      H1291   1.086       .  S
C1280      C1281   1.484       .  S
C1280      H1292   1.087       .  S
C1281      C1282   1.402       .  A
C1281      C1286   1.405       .  A
C1282      C1283   1.399       .  A
C1282      H1293   1.083       .  S
C1283      C1284   1.407       .  A
C1283      H1294   1.083       .  S
C1284      C1285   1.404       .  A
C1285      C1286   1.398       .  A
C1285      H1295   1.081       .  S
C1286      H1296   1.083       .  S
C1297      C1298   1.398       .  A
C1297      C1302   1.401       .  A
C1298      C1299   1.398       .  A
C1298      H1311   1.083       .  S
C1299      C1300   1.406       .  A
C1299      H1312   1.083       .  S
C1300      C1303   1.493       .  S
C1300      C1301   1.412       .  A
C1301      C1302   1.398       .  A
C1301      H1313   1.080       .  S
C1302      H1314   1.083       .  S
C1303      C1304   1.349       .  D
C1303      H1315   1.085       .  S
C1304      C1305   1.487       .  S
C1304      H1316   1.082       .  S
C1305      C1306   1.403       .  A
C1305      C1310   1.408       .  A
C1306      C1307   1.396       .  A
C1306      H1317   1.083       .  S
C1307      C1308   1.406       .  A
C1307      H1318   1.083       .  S
C1308      C1309   1.406       .  A
C1309      C1310   1.400       .  A
C1309      H1319   1.083       .  S
C1310      H1320   1.081       .  S
C1321      C1322   1.403       .  A
C1321      C1326   1.402       .  A
C1322      C1323   1.397       .  A
C1322      H1335   1.083       .  S
C1323      C1324   1.405       .  A
C1323      H1336   1.084       .  S
C1324      C1327   1.493       .  S
C1324      C1325   1.411       .  A
C1325      C1326   1.402       .  A
C1325      H1337   1.080       .  S
C1326      H1338   1.084       .  S
C1327      C1328   1.350       .  D
C1327      H1339   1.084       .  S
C1328      C1329   1.494       .  S
C1328      H1340   1.084       .  S
C1329      C1330   1.404       .  A
C1329      C1334   1.410       .  A
C1330      C1331   1.398       .  A
C1330      H1341   1.083       .  S
C1331      C1332   1.406       .  A
C1331      H1342   1.083       .  S
C1332      C1333   1.407       .  A
C1333      C1334   1.402       .  A
C1333      H1343   1.083       .  S
C1334      H1344   1.080       .  S
C1345      C1346   1.407       .  A
C1345      C1350   1.406       .  A
C1346      C1347   1.400       .  A
C1346      H1359   1.083   1_655  S
C1347      C1348   1.404       .  A
C1347      H1360   1.083       .  S
C1348      C1351   1.489       .  S
C1348      C1349   1.408       .  A
C1349      C1350   1.399       .  A
C1349      H1361   1.082       .  S
C1350      H1362   1.083       .  S
C1351      C1352   1.349       .  D
C1351      H1363   1.085       .  S
C1352      C1353   1.490       .  S
C1352      H1364   1.086       .  S
C1353      C1354   1.405       .  A
C1353      C1358   1.410       .  A
C1354      C1355   1.398       .  A
C1354      H1365   1.083       .  S
C1355      C1356   1.401       .  A
C1355      H1366   1.083       .  S
C1356      C1357   1.404       .  A
C1357      C1358   1.400       .  A
C1357      H1367   1.083       .  S
C1358      H1368   1.080       .  S
C1369      C1370   1.405       .  A
C1369      C1374   1.405       .  A
C1370      C1371   1.398       .  A
C1370      H1383   1.083       .  S
C1371      C1372   1.405       .  A
C1371      H1384   1.083       .  S
C1372      C1375   1.490       .  S
C1372      C1373   1.409       .  A
C1373      C1374   1.398       .  A
C1373      H1385   1.080       .  S
C1374      H1386   1.083       .  S
C1375      C1376   1.349       .  D
C1375      H1387   1.084       .  S
C1376      C1377   1.489       .  S
C1376      H1388   1.083       .  S
C1377      C1378   1.406       .  A
C1377      C1382   1.410       .  A
C1378      C1379   1.398       .  A
C1378      H1389   1.083       .  S
C1379      C1380   1.400       .  A
C1379      H1390   1.083       .  S
C1380      C1381   1.399       .  A
C1381      C1382   1.397       .  A
C1381      H1391   1.080       .  S
C1382      H1392   1.080       .  S
C1393      C1394   1.403       .  A
C1393      C1398   1.405       .  A
C1394      C1395   1.396       .  A
C1394      H1407   1.078       .  S
C1395      C1396   1.402       .  A
C1395      H1408   1.083       .  S
C1396      C1399   1.487       .  S
C1396      C1397   1.409       .  A
C1397      C1398   1.398       .  A
C1397      H1409   1.081       .  S
C1398      H1410   1.082       .  S
C1399      C1400   1.347       .  D
C1399      H1411   1.085       .  S
C1400      C1401   1.487       .  S
C1400      H1412   1.084       .  S
C1401      C1402   1.403       .  A
C1401      C1406   1.409       .  A
C1402      C1403   1.396       .  A
C1402      H1413   1.083       .  S
C1403      C1404   1.406       .  A
C1403      H1414   1.083       .  S
C1404      C1405   1.406       .  A
C1405      C1406   1.399       .  A
C1405      H1415   1.083       .  S
C1406      H1416   1.081       .  S
