geometry optimzed in LAMMPS
_audit_creation_date              2020-11-30 
_audit_creation_method            'lammps2cif' 
_symmetry_space_group_name_H-M    'P1' 
_symmetry_Int_Tables_number       1 
_symmetry_cell_setting            triclinic 
loop_ 
_symmetry_equiv_pos_as_xyz 
  x,y,z 
_cell_length_a                    57.34665483640826 
_cell_length_b                    57.198760220333185 
_cell_length_c                    56.15953690377803 
_cell_angle_alpha                 90.08474996133558 
_cell_angle_beta                  89.60433306633873 
_cell_angle_gamma                 89.79971867574758 
loop_ 
_atom_site_label 
_atom_site_type_symbol 
_atom_site_fract_x 
_atom_site_fract_y 
_atom_site_fract_z 
_atom_site_charge 
C1          C  0.74691500  0.49885837  0.99746628    -0.02570
C2          C  0.50155330  0.74740604  0.99840449    -0.02570
C3          C  0.99702709  0.49916655  0.75032770    -0.02570
C4          C  0.49613253  0.99862743  0.74777082    -0.02570
C5          C  0.74823071  0.99808629  0.50150479    -0.02570
C6          C  0.99989170  0.75255008  0.50038347    -0.02570
C7          C  0.24978215  0.50358075  0.00084019    -0.02570
O8          O  0.97926949  0.54756723  0.02383355    -0.73020
O9          O  0.02465399  0.52894278  0.97265771    -0.74010
O10         O  0.97760927  0.54398960  0.97335774    -0.62620
O11         O  0.02677614  0.53250440  0.02229052    -0.71040
O12         O  0.01524506  0.49556197  0.02562395    -0.70590
O13         O  0.96556724  0.50732973  0.97792181    -0.61840
O14         O  0.01232808  0.49219262  0.97515817    -0.74350
O15         O  0.96826403  0.51048801  0.02743767    -0.73130
Cu16       Cu  0.00246451  0.53959870  0.99793859     1.04560
Cu17       Cu  0.98999447  0.50009000  0.00163208     1.04330
C18         C  0.96652819  0.53191670  0.03351893     0.93170
C19         C  0.02558402  0.50764161  0.96593980     0.92310
C20         C  0.96370324  0.52739136  0.96823767     0.84460
C21         C  0.02887483  0.51218574  0.03140188     0.90730
N22         N  0.89218569  0.50333659  0.84280713    -0.27370
N23         N  0.91034567  0.51610180  0.84933489    -0.35230
C24         C  0.92661246  0.51555693  0.83218043     0.00970
C25         C  0.91871724  0.50186158  0.81390715     0.06990
C26         C  0.89682954  0.49423231  0.82102331    -0.06100
H27         H  0.94366072  0.52348429  0.83355723     0.07660
H28         H  0.88558872  0.48229699  0.81157178     0.08860
Cu29       Cu  0.91725110  0.53060896  0.88209070     0.44170
Cu30       Cu  0.86268964  0.49737574  0.86454189     0.41990
Cu31       Cu  0.88035374  0.51084065  0.92423414     0.43880
N32         N  0.92620408  0.53285186  0.91740066    -0.34760
N33         N  0.91184555  0.52414373  0.93343173    -0.29010
C34         C  0.92258853  0.52269060  0.95442576    -0.05110
C35         C  0.94486263  0.53114246  0.95150407     0.07100
C36         C  0.94676553  0.53746131  0.92779190     0.00900
H37         H  0.91535128  0.51438807  0.97010905     0.08550
H38         H  0.96248672  0.54244062  0.91834881     0.07630
N39         N  0.84783976  0.49984423  0.91556547    -0.36210
N40         N  0.83999023  0.49509961  0.89404806    -0.28390
C41         C  0.81708920  0.48952730  0.89608360    -0.03630
C42         C  0.81095112  0.49061661  0.92011714     0.04980
C43         C  0.83082819  0.49740066  0.93161558     0.03080
H44         H  0.80586395  0.48509467  0.88136803     0.08180
H45         H  0.83285484  0.50087905  0.95035656     0.07020
C46         C  0.99841082  0.49641502  0.25165018    -0.02570
N47         N  0.84452581  0.50173049  0.10250072    -0.27370
N48         N  0.84930895  0.51829964  0.08678416    -0.35230
C49         C  0.83242398  0.51958375  0.07064741     0.00970
C50         C  0.81609539  0.50253778  0.07515095     0.06990
C51         C  0.82416043  0.49150525  0.09580947    -0.06100
H52         H  0.83342116  0.53048237  0.05493605     0.07660
H53         H  0.81673952  0.47622324  0.10422618     0.08860
Cu54       Cu  0.88101617  0.53333965  0.07963756     0.44170
Cu55       Cu  0.86811510  0.49448998  0.13100113     0.41990
Cu56       Cu  0.92067806  0.53140013  0.12034731     0.43880
N57         N  0.91503451  0.53908687  0.06968771    -0.34760
N58         N  0.93110616  0.53839714  0.08621293    -0.29010
C59         C  0.95231087  0.53778874  0.07588233    -0.05110
C60         C  0.94924128  0.53847885  0.05149890     0.07100
C61         C  0.92536337  0.53890175  0.04815289     0.00900
H62         H  0.96844833  0.53458731  0.08522528     0.08550
H63         H  0.91626191  0.53684687  0.03146892     0.07630
N64         N  0.91243765  0.51512243  0.15163253    -0.36210
N65         N  0.89610186  0.49925601  0.15560426    -0.28390
C66         C  0.90189302  0.48773516  0.17594112    -0.03630
C67         C  0.92259656  0.49723876  0.18475906     0.04980
C68         C  0.92818296  0.51464248  0.16894647     0.03080
H69         H  0.89281270  0.47258201  0.18275096     0.08180
H70         H  0.94427842  0.52447015  0.16845894     0.07020
N71         N  0.15444562  0.50088857  0.89415044    -0.27370
N72         N  0.14485648  0.49133500  0.91314251    -0.35230
C73         C  0.16034125  0.48892820  0.93036258     0.00970
C74         C  0.18097486  0.49884721  0.92319011     0.06990
C75         C  0.17694149  0.50599334  0.89965675    -0.06100
H76         H  0.15579039  0.48317325  0.94813922     0.07660
H77         H  0.18874457  0.51556619  0.88820614     0.08860
Cu78       Cu  0.11082254  0.49283836  0.92169043     0.44170
Cu79       Cu  0.13241466  0.50506079  0.86420036     0.41990
Cu80       Cu  0.07444868  0.47583120  0.88446884     0.43880
N81         N  0.07711580  0.49523645  0.93152255    -0.34760
N82         N  0.06153515  0.48645325  0.91711313    -0.29010
C83         C  0.04022215  0.48923680  0.92694957    -0.05110
C84         C  0.04314225  0.50072249  0.94849576     0.07100
C85         C  0.06671504  0.50437009  0.95078881     0.00900
H86         H  0.02398683  0.48417723  0.91875106     0.08550
H87         H  0.07565238  0.51269490  0.96542495     0.07630
N88         N  0.08620773  0.48197387  0.85026133    -0.36210
N89         N  0.10304686  0.49619873  0.84294383    -0.28390
C90         C  0.09719853  0.50411574  0.82098614    -0.03630
C91         C  0.07603993  0.49405311  0.81448012     0.04980
C92         C  0.07029837  0.47975879  0.83323696     0.03080
H93         H  0.10645823  0.51771638  0.81151505     0.08180
H94         H  0.05357097  0.47146405  0.83606850     0.07020
O95         O  0.53114779  0.47206949  0.01143477    -0.73020
O96         O  0.48068719  0.52046016  0.01361414    -0.74010
O97         O  0.48259183  0.47122589  0.01671205    -0.62620
O98         O  0.52929971  0.52137141  0.00914262    -0.71040
O99         O  0.52721371  0.51955017  0.96966839    -0.70590
O100        O  0.47886848  0.46896527  0.97737700    -0.61840
O101        O  0.47748736  0.51805878  0.97425898    -0.74350
O102        O  0.52851717  0.47030442  0.97199385    -0.73130
Cu103      Cu  0.50610466  0.49635563  0.01404919     1.04560
Cu104      Cu  0.50292283  0.49412582  0.97186431     1.04330
C105        C  0.53772014  0.46357525  0.99142998     0.93170
C106        C  0.47100291  0.52668168  0.99421044     0.92310
C107        C  0.47309839  0.46242959  0.99837654     0.84460
C108        C  0.53568318  0.52843007  0.98861718     0.90730
N109        N  0.65924104  0.60503529  0.99433223    -0.27370
N110        N  0.65216868  0.58620432  0.98270084    -0.35230
C111        C  0.66877920  0.56971354  0.98370420     0.00970
C112        C  0.68717504  0.57808614  0.99684805     0.06990
C113        C  0.68069285  0.60065916  0.00327480    -0.06100
H114        H  0.66660969  0.55196062  0.97743105     0.07660
H115        H  0.68996734  0.61223700  0.01511841     0.08860
Cu116      Cu  0.61816757  0.57879915  0.97295716     0.44170
Cu117      Cu  0.63713362  0.63377910  0.00088918     0.41990
Cu118      Cu  0.58532820  0.60534770  0.01802782     0.43880
N119        N  0.58492400  0.56744825  0.98162460    -0.34760
N120        N  0.57402235  0.57648393  0.00025714    -0.29010
C121        C  0.55434904  0.56470803  0.00443944    -0.05110
C122        C  0.55264061  0.54731717  0.98760293     0.07100
C123        C  0.57230740  0.54937658  0.97329378     0.00900
H124        H  0.54240648  0.56826623  0.01901425     0.08550
H125        H  0.57782567  0.53770449  0.95915270     0.07630
N126        N  0.58768615  0.64078041  0.01611840    -0.36210
N127        N  0.60615075  0.65218404  0.00819652    -0.28390
C128        C  0.59967472  0.67450387  0.00369628    -0.03630
C129        C  0.57601379  0.67668276  0.00896987     0.04980
C130        C  0.56915011  0.65501990  0.01671025     0.03080
H131        H  0.61082340  0.68761606  0.99576180     0.08180
H132        H  0.55152920  0.64949810  0.02072597     0.07020
C133        C  0.49776468  0.25286704  0.00078183    -0.02570
O134        O  0.50043407  0.98715574  0.02364136    -0.73020
O135        O  0.52140936  0.03234313  0.97313963    -0.74010
O136        O  0.50668003  0.98556002  0.97365469    -0.62620
O137        O  0.51460598  0.03425192  0.02227099    -0.71040
O138        O  0.55138442  0.02378341  0.02872331    -0.70590
O139        O  0.54347812  0.97414294  0.97822588    -0.61840
O140        O  0.55827475  0.02150434  0.97864915    -0.74350
O141        O  0.53745279  0.97632351  0.02772888    -0.73130
Cu142      Cu  0.50950067  0.01021016  0.99802899     1.04560
Cu143      Cu  0.54897935  0.99853453  0.00354193     1.04330
C144        C  0.51598468  0.97433147  0.03333135     0.93170
C145        C  0.54311573  0.03406057  0.96818200     0.92310
C146        C  0.52364562  0.97215190  0.96815936     0.84460
C147        C  0.53388073  0.03708446  0.03297859     0.90730
N148        N  0.48575616  0.89798722  0.84740978    -0.27370
N149        N  0.47998971  0.91777078  0.85816944    -0.35230
C150        C  0.47903268  0.93507501  0.84219920     0.00970
C151        C  0.48464699  0.92605539  0.82020657     0.06990
C152        C  0.48877963  0.90240251  0.82394897    -0.06100
H153        H  0.47683644  0.95336471  0.84667252     0.07660
H154        H  0.49522187  0.88986360  0.81102864     0.08860
Cu155      Cu  0.48242651  0.92359407  0.89402206     0.44170
Cu156      Cu  0.49284505  0.86776525  0.86716740     0.41990
Cu157      Cu  0.52611664  0.88786715  0.91805607     0.43880
N158        N  0.50282189  0.93393570  0.92192963    -0.34760
N159        N  0.52072833  0.92155701  0.92954891    -0.29010
C160        C  0.53159188  0.93346861  0.94686864    -0.05110
C161        C  0.51976942  0.95431481  0.95010109     0.07100
C162        C  0.50166842  0.95407139  0.93405605     0.00900
H163        H  0.54617291  0.92695708  0.95705393     0.08550
H164        H  0.48858668  0.96748375  0.93141216     0.07630
N165        N  0.51492099  0.85406068  0.91361204    -0.36210
N166        N  0.50156747  0.84643979  0.89613038    -0.28390
C167        C  0.49419922  0.82466606  0.90167020    -0.03630
C168        C  0.50354981  0.81866639  0.92356813     0.04980
C169        C  0.51654793  0.83761340  0.93045845     0.03080
H170        H  0.48253550  0.81429534  0.89093698     0.08180
H171        H  0.52558702  0.83978082  0.94716181     0.07020
C172        C  0.50205591  0.99626486  0.24583610    -0.02570
N173        N  0.50752457  0.84596875  0.10152892    -0.27370
N174        N  0.51931018  0.85738792  0.08505918    -0.35230
C175        C  0.52302446  0.84358612  0.06619478     0.00970
C176        C  0.51370186  0.82186144  0.07086189     0.06990
C177        C  0.50371682  0.82404450  0.09350881    -0.06100
H178        H  0.52936340  0.85004857  0.04933013     0.07660
H179        H  0.49311928  0.81123111  0.10265629     0.08860
Cu180      Cu  0.52309881  0.89274864  0.08456898     0.44170
Cu181      Cu  0.49418391  0.86442655  0.13076596     0.41990
Cu182      Cu  0.47428851  0.92197262  0.10706701     0.43880
N183        N  0.51284291  0.92459497  0.07222984    -0.34760
N184        N  0.49319969  0.93498871  0.07859629    -0.29010
C185        C  0.49063348  0.95463053  0.06559236    -0.05110
C186        C  0.50979580  0.95628240  0.05052531     0.07100
C187        C  0.52339526  0.93700127  0.05521260     0.00900
H188        H  0.47645812  0.96703084  0.06753251     0.08550
H189        H  0.53963298  0.93208999  0.04660670     0.07630
N190        N  0.47494793  0.91261408  0.14260382    -0.36210
N191        N  0.48397798  0.89318616  0.15155561    -0.28390
C192        C  0.48874451  0.89693734  0.17476849    -0.03630
C193        C  0.48201640  0.91955651  0.18055878     0.04980
C194        C  0.47341758  0.92881654  0.15978751     0.03080
H195        H  0.49849570  0.88501061  0.18587405     0.08180
H196        H  0.46942860  0.94704892  0.15660331     0.07020
N197        N  0.51185705  0.15228185  0.89962716    -0.27370
N198        N  0.52788401  0.14867048  0.91610624    -0.35230
C199        C  0.52721583  0.16588255  0.93222268     0.00970
C200        C  0.50972599  0.18120991  0.92633003     0.06990
C201        C  0.50027158  0.17225919  0.90539961    -0.06100
H202        H  0.53741684  0.16608065  0.94836072     0.07660
H203        H  0.48529843  0.17897400  0.89596816     0.08860
Cu204      Cu  0.54591345  0.11833117  0.92214644     0.44170
Cu205      Cu  0.50630319  0.12797313  0.87147954     0.41990
Cu206      Cu  0.54348253  0.07592858  0.88093323     0.43880
N207        N  0.55256232  0.08437755  0.93145156    -0.34760
N208        N  0.55185892  0.06779694  0.91521719    -0.29010
C209        C  0.55063320  0.04690633  0.92598565    -0.05110
C210        C  0.55070390  0.05069794  0.95024189     0.07100
C211        C  0.55171402  0.07463515  0.95316617     0.00900
H212        H  0.54697582  0.03060392  0.91697343     0.08550
H213        H  0.54918686  0.08425517  0.96959291     0.07630
N214        N  0.52398645  0.08179684  0.85122028    -0.36210
N215        N  0.50922231  0.09924801  0.84745382    -0.28390
C216        C  0.49688547  0.09405222  0.82759906    -0.03630
C217        C  0.50442848  0.07237904  0.81904960     0.04980
C218        C  0.52158128  0.06544263  0.83442340     0.03080
H219        H  0.48274371  0.10454289  0.82069189     0.08180
H220        H  0.53061425  0.04879723  0.83438642     0.07020
O221        O  0.99991060  0.46911858  0.52231646    -0.73020
O222        O  0.98875478  0.51862484  0.47304021    -0.74010
O223        O  0.99612024  0.46977906  0.47271126    -0.62620
O224        O  0.99141096  0.51729570  0.52327977    -0.71040
O225        O  0.02955696  0.52389831  0.52084974    -0.70590
O226        O  0.03428162  0.47558437  0.46893387    -0.61840
O227        O  0.02702714  0.52457359  0.47123561    -0.74350
O228        O  0.03807311  0.47552523  0.51907904    -0.73130
Cu229      Cu  0.99268536  0.49349432  0.49786413     1.04560
Cu230      Cu  0.03360284  0.50008409  0.49486511     1.04330
C231        C  0.02090711  0.46483986  0.52842299     0.93170
C232        C  0.00640015  0.52967876  0.46481617     0.92310
C233        C  0.01565992  0.46483322  0.46305875     0.84460
C234        C  0.00956439  0.52799352  0.53019637     0.90730
N235        N  0.98898307  0.60181880  0.65219969    -0.27370
N236        N  0.97862522  0.58390102  0.64178980    -0.35230
C237        C  0.97935832  0.56526186  0.65613053     0.00970
C238        C  0.99143652  0.57109468  0.67634485     0.06990
C239        C  0.99682284  0.59465190  0.67366488    -0.06100
H240        H  0.97283579  0.54819794  0.65133199     0.07660
H241        H  0.00703579  0.60525513  0.68564516     0.08860
Cu242      Cu  0.97312093  0.58003690  0.60593095     0.44170
Cu243      Cu  0.99517228  0.63340878  0.63411783     0.41990
Cu244      Cu  0.02125032  0.60862037  0.58314150     0.43880
N245        N  0.99198075  0.56696361  0.57758899    -0.34760
N246        N  0.01182143  0.57659677  0.57090780    -0.29010
C247        C  0.02159504  0.56389718  0.55339847    -0.05110
C248        C  0.00706054  0.54532285  0.54896228     0.07100
C249        C  0.98845161  0.54766301  0.56456363     0.00900
H250        H  0.03734866  0.56854910  0.54383896     0.08550
H251        H  0.97352980  0.53625102  0.56632049     0.07630
N252        N  0.01291429  0.64318250  0.58549710    -0.36210
N253        N  0.00290591  0.65358120  0.60390195    -0.28390
C254        C  0.99806915  0.67596159  0.59767183    -0.03630
C255        C  0.00561805  0.67933693  0.57423644     0.04980
C256        C  0.01419704  0.65791023  0.56717213     0.03080
H257        H  0.98949378  0.68863917  0.60908120     0.08180
H258        H  0.01981865  0.65278341  0.54952496     0.07020
O259        O  0.47218425  0.00555370  0.47465721    -0.73020
O260        O  0.52399658  0.99812328  0.52137956    -0.74010
O261        O  0.47551554  0.99686908  0.52413077    -0.62620
O262        O  0.52096271  0.00597858  0.47193484    -0.71040
O263        O  0.52275085  0.04427976  0.47849347    -0.70590
O264        O  0.47379458  0.03536582  0.52950260    -0.61840
O265        O  0.52341956  0.03653408  0.52779341    -0.74350
O266        O  0.47355179  0.04409918  0.47984086    -0.73130
Cu267      Cu  0.49820429  0.00029004  0.49778153     1.04560
Cu268      Cu  0.49833179  0.04146107  0.50420845     1.04330
C269        C  0.46507956  0.02615675  0.46968439     0.93170
C270        C  0.53167347  0.01626842  0.53194854     0.92310
C271        C  0.46730267  0.01464800  0.53496590     0.84460
C272        C  0.52910338  0.02609496  0.46691371     0.90730
N273        N  0.65529764  0.99905376  0.60714558    -0.27370
N274        N  0.64735500  0.00837369  0.58716737    -0.35230
C275        C  0.66255949  0.00447818  0.56945702     0.00970
C276        C  0.68119282  0.99225617  0.57827876     0.06990
C277        C  0.67643639  0.98942129  0.60240646    -0.06100
H278        H  0.66023921  0.01036851  0.55132254     0.07660
H279        H  0.68739594  0.98093574  0.61541551     0.08860
Cu280      Cu  0.61559269  0.02366074  0.58088971     0.44170
Cu281      Cu  0.63570088  0.99841865  0.63909608     0.41990
Cu282      Cu  0.57781088  0.99523702  0.61541765     0.43880
N283        N  0.58216793  0.01861286  0.56954933    -0.34760
N284        N  0.56834592  0.00504642  0.58215818    -0.29010
C285        C  0.54837067  0.00164892  0.57047111    -0.05110
C286        C  0.54989428  0.01386357  0.54944417     0.07100
C287        C  0.57140934  0.02461275  0.54931014     0.00900
H288        H  0.53364144  0.99181424  0.57716692     0.08550
H289        H  0.57884403  0.03542821  0.53543177     0.07630
N290        N  0.58494063  0.99851475  0.65065299    -0.36210
N291        N  0.60561744  0.99899236  0.66084316    -0.28390
C292        C  0.60222229  0.99940754  0.68480401    -0.03630
C293        C  0.57823395  0.99963879  0.68920757     0.04980
C294        C  0.56817677  0.99928131  0.66710961     0.03080
H295        H  0.61595871  0.99849160  0.69787215     0.08180
H296        H  0.54975878  0.99811717  0.66322889     0.07020
C297        C  0.24621086  0.00098243  0.49618329    -0.02570
O298        O  0.97815141  0.96937626  0.51978913    -0.73020
O299        O  0.02472643  0.02129351  0.52036945    -0.74010
O300        O  0.97581896  0.01921992  0.51939502    -0.62620
O301        O  0.02734974  0.97151265  0.52000303    -0.71040
O302        O  0.02812536  0.97201303  0.48042526    -0.70590
O303        O  0.97653494  0.01840228  0.47979632    -0.61840
O304        O  0.02589911  0.02098978  0.48079667    -0.74350
O305        O  0.97865915  0.96953467  0.48021159    -0.73130
Cu306      Cu  0.00148757  0.99532385  0.52132460     1.04560
Cu307      Cu  0.00233400  0.99521527  0.47894348     1.04330
C308        C  0.97088655  0.96148486  0.49992548     0.93170
C309        C  0.03265140  0.02926170  0.50072841     0.92310
C310        C  0.96819058  0.02625178  0.49931177     0.84460
C311        C  0.03587832  0.96441437  0.50016840     0.90730
N312        N  0.89077607  0.84153584  0.50682356    -0.27370
N313        N  0.90688873  0.85027484  0.52098891    -0.35230
C314        C  0.92393166  0.83451531  0.52377180     0.00970
C315        C  0.91936343  0.81506215  0.50988553     0.06990
C316        C  0.89788677  0.82004678  0.49951022    -0.06100
H317        H  0.94039756  0.83852942  0.53212223     0.07660
H318        H  0.88951934  0.81017946  0.48555458     0.08860
Cu319      Cu  0.91354056  0.88564168  0.52508005     0.44170
Cu320      Cu  0.86285111  0.86237897  0.49504307     0.41990
Cu321      Cu  0.89071559  0.91383835  0.47466526     0.43880
N322        N  0.92907661  0.91487077  0.50997988    -0.34760
N323        N  0.92183423  0.92339697  0.48947222    -0.29010
C324        C  0.93596321  0.94078108  0.48255819    -0.05110
C325        C  0.95288458  0.94345005  0.49964868     0.07100
C326        C  0.94805728  0.92682458  0.51687991     0.00900
H327        H  0.93337967  0.95144944  0.46689742     0.08550
H328        H  0.95771134  0.92351521  0.53301799     0.07630
N329        N  0.85517475  0.91127146  0.47784268    -0.36210
N330        N  0.84416805  0.89292128  0.48654770    -0.28390
C331        C  0.82177351  0.89913537  0.49103519    -0.03630
C332        C  0.81882889  0.92268232  0.48504090     0.04980
C333        C  0.84047286  0.92944869  0.47661786     0.03080
H334        H  0.80899715  0.88752206  0.49872756     0.08180
H335        H  0.84572281  0.94696521  0.47175099     0.07020
C336        C  0.99634458  0.24464007  0.50168593    -0.02570
N337        N  0.89203884  0.15458635  0.49804734    -0.27370
N338        N  0.91300672  0.14546206  0.50103303    -0.35230
C339        C  0.92892369  0.16231460  0.50119428     0.00970
C340        C  0.91790477  0.18358172  0.49891570     0.06990
C341        C  0.89428636  0.17819868  0.49689865    -0.06100
H342        H  0.94727381  0.15933127  0.50438127     0.07660
H343        H  0.87990391  0.19042611  0.49583240     0.08860
Cu344      Cu  0.92136509  0.11121423  0.50697939     0.44170
Cu345      Cu  0.86308886  0.13216659  0.49621238     0.41990
Cu346      Cu  0.88910897  0.07657223  0.47258520     0.43880
N347        N  0.93145602  0.07740884  0.50142690    -0.34760
N348        N  0.92018118  0.06468235  0.48576546    -0.29010
C349        C  0.93103676  0.04402032  0.48318379    -0.05110
C350        C  0.94991956  0.04387321  0.49831865     0.07100
C351        C  0.94980495  0.06530293  0.50961752     0.00900
H352        H  0.92554194  0.03017064  0.47136269     0.08550
H353        H  0.96269683  0.07204729  0.52178733     0.07630
N354        N  0.85497484  0.08150959  0.48238037    -0.36210
N355        N  0.84522985  0.10024573  0.49223795    -0.28390
C356        C  0.82382065  0.09414140  0.50035888    -0.03630
C357        C  0.82065357  0.07046769  0.49580422     0.04980
C358        C  0.84049470  0.06333390  0.48412000     0.03080
H359        H  0.81189204  0.10574593  0.50962618     0.08180
H360        H  0.84460318  0.04581216  0.47809543     0.07020
N361        N  0.15794410  0.88991376  0.48769289    -0.27370
N362        N  0.14775237  0.90607780  0.47452483    -0.35230
C363        C  0.16177583  0.92457936  0.47263365     0.00970
C364        C  0.18157916  0.92084587  0.48605577     0.06990
C365        C  0.17868558  0.89836163  0.49520893    -0.06100
H366        H  0.15646334  0.94087450  0.46451539     0.07660
H367        H  0.18952041  0.88974517  0.50820776     0.08860
Cu368      Cu  0.11222731  0.91007141  0.47041551     0.44170
Cu369      Cu  0.13999998  0.85948445  0.49762407     0.41990
Cu370      Cu  0.08933294  0.88622651  0.52205339     0.43880
N371        N  0.08360902  0.92458953  0.48756720    -0.34760
N372        N  0.07679190  0.91698998  0.50865182    -0.29010
C373        C  0.05913863  0.93033471  0.51676097    -0.05110
C374        C  0.05466370  0.94715036  0.49981405     0.07100
C375        C  0.07043961  0.94307684  0.48151063     0.00900
H376        H  0.04953713  0.92724279  0.53309970     0.08550
H377        H  0.07226604  0.95284048  0.46512122     0.07630
N378        N  0.09233119  0.85097346  0.51635267    -0.36210
N379        N  0.11018324  0.84011093  0.50630036    -0.28390
C380        C  0.10385566  0.81771310  0.50177125    -0.03630
C381        C  0.08078547  0.81470903  0.50938534     0.04980
C382        C  0.07439295  0.83635582  0.51829432     0.03080
H383        H  0.11507990  0.80492361  0.49332124     0.08180
H384        H  0.05729694  0.84161740  0.52463293     0.07020
N385        N  0.38983456  0.98886530  0.65500530    -0.27370
N386        N  0.40773823  0.97786850  0.64496259    -0.35230
C387        C  0.42574071  0.97787521  0.65989523     0.00970
C388        C  0.41988633  0.99037716  0.68013556     0.06990
C389        C  0.39666778  0.99686138  0.67660270    -0.06100
H390        H  0.44296930  0.97173970  0.65492848     0.07660
H391        H  0.38622133  0.00830221  0.68770807     0.08860
Cu392      Cu  0.41458801  0.97443054  0.60895157     0.44170
Cu393      Cu  0.35842026  0.99493147  0.63658554     0.41990
Cu394      Cu  0.38277269  0.01622409  0.58305766     0.43880
N395        N  0.42828327  0.99363871  0.58096441    -0.34760
N396        N  0.41658395  0.01182315  0.57300022    -0.29010
C397        C  0.42912325  0.02287992  0.55623226    -0.05110
C398        C  0.44985095  0.01090175  0.55352712     0.07100
C399        C  0.44879940  0.99234443  0.56933469     0.00900
H400        H  0.42294109  0.03743943  0.54570961     0.08550
H401        H  0.46184074  0.97890876  0.57203361     0.07630
N402        N  0.34904823  0.00551266  0.58612139    -0.36210
N403        N  0.33825704  0.99846105  0.60561219    -0.28390
C404        C  0.31559599  0.99428473  0.60005996    -0.03630
C405        C  0.31262393  0.99877292  0.57575702     0.04980
C406        C  0.33447276  0.00525714  0.56784497     0.03080
H407        H  0.30231763  0.98922248  0.61277824     0.08180
H408        H  0.33936641  0.01047109  0.54998314     0.07020
N409        N  0.01118955  0.39490569  0.65591625    -0.27370
N410        N  0.02364470  0.41336078  0.64954817    -0.35230
C411        C  0.02408968  0.42893144  0.66727545     0.00970
C412        C  0.01115795  0.42045909  0.68592084     0.06990
C413        C  0.00294576  0.39883750  0.67824872    -0.06100
H414        H  0.03131238  0.44632516  0.66573942     0.07660
H415        H  0.99092820  0.38752366  0.68762510     0.08860
Cu416      Cu  0.03398860  0.42225844  0.61596131     0.44170
Cu417      Cu  0.00553227  0.36630995  0.63250158     0.41990
Cu418      Cu  0.03227429  0.38050548  0.57469164     0.43880
N419        N  0.03291533  0.43105118  0.58081209    -0.34760
N420        N  0.03211951  0.41446505  0.56461404    -0.29010
C421        C  0.02767873  0.42386602  0.54328052    -0.05110
C422        C  0.02564936  0.44761662  0.54652339     0.07100
C423        C  0.02915398  0.45178951  0.57040562     0.00900
H424        H  0.02524156  0.41410114  0.52697564     0.08550
H425        H  0.02798789  0.46837123  0.57964260     0.07630
N426        N  0.02011907  0.34855515  0.58377009    -0.36210
N427        N  0.00851958  0.34278823  0.60334588    -0.28390
C428        C  0.99978778  0.32103006  0.60003080    -0.03630
C429        C  0.00658641  0.31339519  0.57744200     0.04980
C430        C  0.01935085  0.33122548  0.56790786     0.03080
H431        H  0.98891977  0.31180172  0.61269156     0.08180
H432        H  0.02643782  0.33216648  0.55002523     0.07020
N433        N  0.10416880  0.15446733  0.50902010    -0.27370
N434        N  0.08713683  0.14475192  0.52146678    -0.35230
C435        C  0.06895278  0.15941399  0.52239073     0.00970
C436        C  0.07402057  0.17919094  0.50919468     0.06990
C437        C  0.09677891  0.17555977  0.50112297    -0.06100
H438        H  0.05208004  0.15464753  0.52959092     0.07660
H439        H  0.10631680  0.18611081  0.48846109     0.08860
Cu440      Cu  0.08298570  0.10921233  0.52654829     0.44170
Cu441      Cu  0.13427690  0.13557637  0.50008157     0.41990
Cu442      Cu  0.11172591  0.08123704  0.47895695     0.43880
N443        N  0.07103350  0.07831925  0.51182151    -0.34760
N444        N  0.08044791  0.06954898  0.49222039    -0.29010
C445        C  0.06800820  0.05102785  0.48505785    -0.05110
C446        C  0.04996634  0.04792176  0.50108348     0.07100
C447        C  0.05234142  0.06544491  0.51789289     0.00900
H448        H  0.07234816  0.04010498  0.46990963     0.08550
H449        H  0.04109253  0.06886650  0.53305569     0.07630
N450        N  0.14666678  0.08739325  0.48340271    -0.36210
N451        N  0.15551782  0.10664776  0.49268398    -0.28390
C452        C  0.17812084  0.10255868  0.49803006    -0.03630
C453        C  0.18336716  0.07970714  0.49154663     0.04980
C454        C  0.16309881  0.07074139  0.48241788     0.03080
H455        H  0.18944574  0.11479852  0.50695913     0.08180
H456        H  0.16003527  0.05282487  0.47710303     0.07020
N457        N  0.65112356  0.01127093  0.39525920    -0.27370
N458        N  0.64326747  0.02688137  0.41072816    -0.35230
C459        C  0.65734670  0.02752748  0.42955943     0.00970
C460        C  0.67515096  0.01112445  0.42692011     0.06990
C461        C  0.67055250  0.00135322  0.40442829    -0.06100
H462        H  0.65337524  0.03832030  0.44479920     0.07660
H463        H  0.67957563  0.98731372  0.39549549     0.08860
Cu464      Cu  0.61010700  0.04085876  0.41295911     0.44170
Cu465      Cu  0.63280318  0.00212488  0.36398405     0.41990
Cu466      Cu  0.57719055  0.99708424  0.38766909     0.43880
N467        N  0.57683665  0.03378365  0.42511863    -0.34760
N468        N  0.56557369  0.01586946  0.41601059    -0.29010
C469        C  0.54636976  0.01165783  0.42876822    -0.05110
C470        C  0.54542783  0.02761029  0.44705670     0.07100
C471        C  0.56497978  0.04156539  0.44439687     0.00900
H472        H  0.53454443  0.99730468  0.42556791     0.08550
H473        H  0.57110844  0.05483795  0.45656557     0.07630
N474        N  0.58369514  0.99074153  0.35278128    -0.36210
N475        N  0.60399452  0.99414450  0.34220974    -0.28390
C476        C  0.60062757  0.99282707  0.31835167    -0.03630
C477        C  0.57711157  0.98788155  0.31437383     0.04980
C478        C  0.56713433  0.98711677  0.33664659     0.03080
H479        H  0.61395240  0.99586703  0.30499858     0.08180
H480        H  0.54873791  0.98575913  0.34083255     0.07020
N481        N  0.00821868  0.65627466  0.39363238    -0.27370
N482        N  0.02034445  0.64672667  0.41103228    -0.35230
C483        C  0.02193193  0.66179996  0.42922542     0.00970
C484        C  0.00951147  0.68176913  0.42377256     0.06990
C485        C  0.00130715  0.67788990  0.40077002    -0.06100
H486        H  0.02969632  0.65755116  0.44617512     0.07660
H487        H  0.98957633  0.68905286  0.39091455     0.08860
Cu488      Cu  0.02495583  0.61125536  0.41474304     0.44170
Cu489      Cu  0.99930137  0.63588782  0.36363973     0.41990
Cu490      Cu  0.97532347  0.58389911  0.38920720     0.43880
N491        N  0.01098367  0.58037808  0.42704698    -0.34760
N492        N  0.99108261  0.57166947  0.41939729    -0.29010
C493        C  0.98586243  0.55237248  0.43195767    -0.05110
C494        C  0.00347216  0.54891202  0.44817173     0.07100
C495        C  0.01907453  0.56690737  0.44464708     0.00900
H496        H  0.97109273  0.54113275  0.42866908     0.08550
H497        H  0.03507097  0.57005452  0.45422934     0.07630
N498        N  0.98065882  0.58785089  0.35331261    -0.36210
N499        N  0.99141675  0.60579806  0.34334073    -0.28390
C500        C  0.99758643  0.59957556  0.32085306    -0.03630
C501        C  0.99009737  0.57676084  0.31688947     0.04980
C502        C  0.97950919  0.57008354  0.33780880     0.03080
H503        H  0.00774763  0.61028284  0.30881533     0.08180
H504        H  0.97320002  0.55278563  0.34214749     0.07020
N505        N  0.60934813  0.33756160  0.00702113    -0.27370
N506        N  0.59067694  0.34886666  0.01467420    -0.35230
C507        C  0.57286411  0.33410904  0.01682355     0.00970
C508        C  0.58017793  0.31192788  0.01045328     0.06990
C509        C  0.60365548  0.31470317  0.00414680    -0.06100
H510        H  0.55531356  0.33946060  0.02157542     0.07660
H511        H  0.61554381  0.30136959  0.99774934     0.08860
Cu512      Cu  0.58738255  0.38439539  0.01667610     0.44170
Cu513      Cu  0.63933249  0.35735124  0.99963659     0.41990
Cu514      Cu  0.61430567  0.40664202  0.96609062     0.43880
N515        N  0.57635423  0.41473882  0.00125949    -0.34760
N516        N  0.58445301  0.42184271  0.98045683    -0.29010
C517        C  0.57204708  0.44063033  0.97348664    -0.05110
C518        C  0.55558315  0.44536634  0.99102900     0.07100
C519        C  0.55880421  0.42866763  0.00832275     0.00900
H520        H  0.57515796  0.45040687  0.95730196     0.08550
H521        H  0.54861173  0.42626180  0.02441206     0.07630
N522        N  0.64923717  0.40263970  0.97435720    -0.36210
N523        N  0.65776560  0.38772915  0.99002813    -0.28390
C524        C  0.67735730  0.39708546  0.99943942    -0.03630
C525        C  0.68139179  0.41890137  0.98895130     0.04980
C526        C  0.66344300  0.42100072  0.97260135     0.03080
H527        H  0.68655211  0.38938398  0.01418236     0.08180
H528        H  0.65927038  0.43607313  0.96184607     0.07020
N529        N  0.49652164  0.15807963  0.10753501    -0.27370
N530        N  0.49289071  0.14748283  0.08702754    -0.35230
C531        C  0.49031302  0.16320457  0.06968474     0.00970
C532        C  0.49280603  0.18512704  0.07929375     0.06990
C533        C  0.49671122  0.18144926  0.10350508    -0.06100
H534        H  0.48946438  0.15890470  0.05093506     0.07660
H535        H  0.50104780  0.19453644  0.11665448     0.08860
Cu536      Cu  0.50108701  0.11346971  0.08092678     0.44170
Cu537      Cu  0.50406674  0.13711737  0.13742876     0.41990
Cu538      Cu  0.54320572  0.08825951  0.11740447     0.43880
N539        N  0.52189333  0.08662455  0.06996358    -0.34760
N540        N  0.53865420  0.07716897  0.08273892    -0.29010
C541        C  0.54720615  0.05838950  0.07093646    -0.05110
C542        C  0.53503777  0.05645775  0.04978245     0.07100
C543        C  0.51939294  0.07471991  0.04975791     0.00900
H544        H  0.55958530  0.04600733  0.07813740     0.08550
H545        H  0.50599588  0.07820248  0.03674073     0.07630
N546        N  0.52817218  0.09145681  0.15078201    -0.36210
N547        N  0.51225878  0.10699923  0.15760688    -0.28390
C548        C  0.50109392  0.09844604  0.17707461    -0.03630
C549        C  0.51049991  0.07662958  0.18238778     0.04980
C550        C  0.52786071  0.07323221  0.16569352     0.03080
H551        H  0.48609005  0.10656038  0.18549080     0.08180
H552        H  0.53796926  0.05742229  0.16303355     0.07020
N553        N  0.34671663  0.60396786  0.98411390    -0.27370
N554        N  0.35573889  0.58499180  0.97411005    -0.35230
C555        C  0.33932028  0.56847316  0.97256352     0.00970
C556        C  0.31884831  0.57713485  0.98202580     0.06990
C557        C  0.32407882  0.59970729  0.98937922    -0.06100
H558        H  0.34273464  0.55051918  0.96748875     0.07660
H559        H  0.31291967  0.61129754  0.99961377     0.08860
Cu560      Cu  0.39082062  0.57761542  0.97104222     0.44170
Cu561      Cu  0.36756127  0.63249234  0.99387319     0.41990
Cu562      Cu  0.41834034  0.60507342  0.01864191     0.43880
N563        N  0.42133789  0.56492435  0.98536811    -0.34760
N564        N  0.43009999  0.57387109  0.00502504    -0.29010
C565        C  0.44893380  0.56145084  0.01143479    -0.05110
C566        C  0.45219218  0.54393414  0.99481491     0.07100
C567        C  0.43443425  0.54656834  0.97850654     0.02700
H568        H  0.45999685  0.56553672  0.02639207     0.08550
H569        H  0.43111711  0.53582752  0.96303104     0.07630
N570        N  0.41518791  0.64048579  0.01380769    -0.36210
N571        N  0.39743326  0.65121107  0.00365388    -0.28390
C572        C  0.40363950  0.67361586  0.99929991    -0.03630
C573        C  0.42656699  0.67683709  0.00689322     0.04980
C574        C  0.43297235  0.65535433  0.01601878     0.03080
H575        H  0.39239675  0.68624616  0.99085598     0.08180
H576        H  0.45003790  0.65033565  0.02237403     0.07020
N577        N  0.15840917  0.50251841  0.10740897    -0.27370
N578        N  0.14987266  0.50555533  0.08577440    -0.35230
C579        C  0.16720577  0.50682213  0.06986694     0.00970
C580        C  0.18809088  0.50460911  0.08143393     0.06990
C581        C  0.18206180  0.50181122  0.10541393    -0.06100
H582        H  0.16469234  0.50961182  0.05102437     0.07660
H583        H  0.19390550  0.49999895  0.12020622     0.08860
Cu584      Cu  0.11571442  0.50860566  0.07577737     0.44170
Cu585      Cu  0.13588223  0.50007256  0.13767117     0.41990
Cu586      Cu  0.07615481  0.48904932  0.11483086     0.43880
N587        N  0.08139364  0.50684557  0.06617467    -0.34760
N588        N  0.06607682  0.49771023  0.08098459    -0.29010
C589        C  0.04494003  0.49783312  0.07082585    -0.05110
C590        C  0.04729020  0.50785371  0.04858513     0.07100
C591        C  0.07058290  0.51345841  0.04614151     0.00900
H592        H  0.02901930  0.49194399  0.07930601     0.08550
H593        H  0.07903746  0.52151870  0.03096648     0.07630
N594        N  0.08505367  0.49095538  0.15010117    -0.36210
N595        N  0.10551411  0.49628490  0.15944822    -0.28390
C596        C  0.10216865  0.49976472  0.18319840    -0.03630
C597        C  0.07859854  0.49626149  0.18849974     0.04980
C598        C  0.06864516  0.49075142  0.16706645     0.03080
H599        H  0.11548142  0.50562048  0.19536326     0.08180
H600        H  0.05025314  0.48840562  0.16367792     0.07020
N601        N  0.99894564  0.33991201  0.39361488    -0.27370
N602        N  0.98775067  0.35145351  0.41057155    -0.35230
C603        C  0.98462607  0.33762121  0.42953716     0.00970
C604        C  0.99510275  0.31629560  0.42509014     0.06990
C605        C  0.00365587  0.31811284  0.40180340    -0.06100
H606        H  0.97686369  0.34343827  0.44610883     0.07660
H607        H  0.01406418  0.30525382  0.39236014     0.08860
Cu608      Cu  0.98691864  0.38724192  0.41229561     0.44170
Cu609      Cu  0.00945901  0.35828485  0.36270419     0.41990
Cu610      Cu  0.03983295  0.40796351  0.38576449     0.43880
N611        N  0.00478271  0.41608606  0.42404645    -0.34760
N612        N  0.02556040  0.42237862  0.41607192    -0.29010
C613        C  0.03309353  0.44080390  0.42876476    -0.05110
C614        C  0.01610925  0.44611754  0.44546185     0.07100
C615        C  0.99850338  0.43013507  0.44204010     0.00900
H616        H  0.04921432  0.45006471  0.42549604     0.08550
H617        H  0.98239687  0.42862604  0.45206706     0.07630
N618        N  0.03169995  0.40443801  0.35041481    -0.36210
N619        N  0.01857859  0.38758368  0.34161524    -0.28390
C620        C  0.00990789  0.39505972  0.32054394    -0.03630
C621        C  0.01810536  0.41761189  0.31616759     0.04980
C622        C  0.03183984  0.42270437  0.33551227     0.03080
H623        H  0.99674693  0.38589669  0.31050684     0.08180
H624        H  0.03901987  0.43963599  0.33988885     0.07020
N625        N  0.39834616  0.00705298  0.34519038    -0.27370
N626        N  0.41358435  0.02353281  0.35076608    -0.35230
C627        C  0.43047175  0.02444885  0.33432082     0.00970
C628        C  0.42667076  0.00732986  0.31768185     0.06990
C629        C  0.40586191  0.99674094  0.32473167    -0.06100
H630        H  0.44600549  0.03500563  0.33595707     0.07660
H631        H  0.39779025  0.98167374  0.31659969     0.08860
Cu632      Cu  0.41920311  0.03809862  0.38348642     0.44170
Cu633      Cu  0.36935160  0.99866275  0.36757711     0.41990
Cu634      Cu  0.37938981  0.02774378  0.42418908     0.43880
N635        N  0.42900550  0.03645262  0.41840989    -0.34760
N636        N  0.41307712  0.03147761  0.43453074    -0.29010
C637        C  0.42336915  0.02701465  0.45542052    -0.05110
C638        C  0.44703986  0.02950163  0.45203286     0.07100
C639        C  0.45017532  0.03553599  0.42843259     0.00900
H640        H  0.41439501  0.02168947  0.47151969     0.08550
H641        H  0.46653790  0.03787497  0.41903910     0.07630
N642        N  0.34798453  0.01509661  0.41384689    -0.36210
N643        N  0.34410446  0.00115785  0.39550005    -0.28390
C644        C  0.32348427  0.99013644  0.39957334    -0.03630
C645        C  0.31451882  0.99794024  0.42140674     0.04980
C646        C  0.33029150  0.01410976  0.42927977     0.03080
H647        H  0.31639410  0.97650214  0.38842377     0.08180
H648        H  0.33030874  0.02252047  0.44656133     0.07020
N649        N  0.39307231  0.34619121  0.00409662    -0.27370
N650        N  0.40890964  0.35192852  0.02013702    -0.35230
C651        C  0.42459125  0.33478776  0.02199257     0.00970
C652        C  0.41986270  0.31769257  0.00542142     0.06990
C653        C  0.39937874  0.32527492  0.99451245    -0.06100
H654        H  0.44073272  0.33666170  0.03168356     0.07660
H655        H  0.39107810  0.31744336  0.97923681     0.08860
Cu656      Cu  0.42008261  0.38519744  0.02801392     0.44170
Cu657      Cu  0.36501491  0.36896071  0.99537833     0.41990
Cu658      Cu  0.38448696  0.42628302  0.01204635     0.43880
N659        N  0.43382163  0.41656325  0.01672095    -0.34760
N660        N  0.41917530  0.43239569  0.00881994    -0.29010
C661        C  0.43097889  0.45046524  0.99960348    -0.05110
C662        C  0.45441626  0.44564459  0.00190529     0.07100
C663        C  0.45574224  0.42416421  0.01319611     0.00900
H664        H  0.42310705  0.46624780  0.99266644     0.08550
H665        H  0.47134387  0.41483606  0.01837187     0.07630
N666        N  0.35040967  0.41720760  0.01006298    -0.36210
N667        N  0.34240585  0.39817956  0.99962000    -0.28390
C668        C  0.32000132  0.40250251  0.99321119    -0.03630
C669        C  0.31421462  0.42520287  0.00043636     0.04980
C670        C  0.33371335  0.43335314  0.01169582     0.03080
H671        H  0.30941124  0.39081363  0.98271517     0.08180
H672        H  0.33663555  0.45108442  0.01771568     0.07020
C673        C  0.03958734  0.23512162  0.49626156    -0.20390
C674        C  0.01638961  0.22637325  0.49727158    -0.06950
C675        C  0.01400485  0.20149823  0.49427091     0.13920
C676        C  0.03360292  0.18716122  0.49706135    -0.20440
C677        C  0.05591058  0.19607824  0.50094852    -0.06960
C678        C  0.05926650  0.22038089  0.49872955     0.13900
C679        C  0.08308366  0.23106570  0.50101235    -0.23790
H680        H  0.04231102  0.25383412  0.49641466     0.15190
H681        H  0.03132294  0.16835423  0.49622758     0.15220
C682        C  0.99240552  0.18808697  0.48729815    -0.23740
H683        H  0.08232077  0.25045973  0.50035745     0.05430
H684        H  0.09440377  0.22508733  0.48610900     0.08660
H685        H  0.09095586  0.22594078  0.51824923     0.08660
H686        H  0.97777913  0.19850873  0.48091856     0.08640
H687        H  0.98656692  0.17704705  0.50242387     0.08640
H688        H  0.99669102  0.17634790  0.47208645     0.05420
C689        C  0.95312455  0.23812184  0.48840987    -0.20390
C690        C  0.97148419  0.23321196  0.50459872    -0.06950
C691        C  0.96557756  0.21790912  0.52407189     0.13920
C692        C  0.94468096  0.20542072  0.52359674    -0.20440
C693        C  0.93020821  0.20578201  0.50381311    -0.06960
C694        C  0.93340503  0.22345442  0.48676770     0.13900
C695        C  0.91689314  0.22591904  0.46624218    -0.23790
H696        H  0.95477070  0.25206406  0.47561892     0.15190
H697        H  0.94106760  0.19268920  0.53743365     0.15220
C698        C  0.98110893  0.21265139  0.54497915    -0.23740
H699        H  0.92196227  0.24053912  0.45430631     0.05430
H700        H  0.89901566  0.22938806  0.47311671     0.08660
H701        H  0.91684364  0.20956166  0.45557651     0.08660
H702        H  0.99756099  0.20472939  0.53880405     0.08640
H703        H  0.97335137  0.19959584  0.55729651     0.08640
H704        H  0.98369683  0.22840054  0.55602109     0.05420
C705        C  0.98099665  0.27614582  0.52946405    -0.20390
C706        C  0.99871227  0.25896866  0.52576424    -0.06950
C707        C  0.01630484  0.25740467  0.54408761     0.13920
C708        C  0.01728989  0.27484124  0.56174660    -0.20440
C709        C  0.00053724  0.29241297  0.56369019    -0.06960
C710        C  0.98176524  0.29267796  0.54785497     0.13900
C711        C  0.96319754  0.31133298  0.54950318    -0.23790
H712        H  0.96698253  0.27763520  0.51671581     0.15190
H713        H  0.03161136  0.27485211  0.57429383     0.15220
C714        C  0.03355522  0.23782053  0.54831865    -0.23740
H715        H  0.94956857  0.30902253  0.53574874     0.05430
H716        H  0.97110637  0.32885087  0.54697971     0.08660
H717        H  0.95464060  0.31060343  0.56727897     0.08660
H718        H  0.05155218  0.24414793  0.54490873     0.08640
H719        H  0.03056737  0.22171184  0.53837131     0.08640
H720        H  0.03245506  0.23225284  0.56724707     0.05420
C721        C  0.00715154  0.28525669  0.48368608    -0.20390
C722        C  0.99841534  0.26232915  0.47974265    -0.06950
C723        C  0.99467304  0.25643232  0.45508303     0.13920
C724        C  0.99389743  0.27429793  0.43764949    -0.20440
C725        C  0.99896841  0.29755801  0.44314935    -0.06960
C726        C  0.00752328  0.30261868  0.46607136     0.13900
C727        C  0.01846581  0.32591618  0.47192225    -0.23790
H728        H  0.01444901  0.28999898  0.50067267     0.15190
H729        H  0.98910900  0.27009974  0.41950536     0.15220
C730        C  0.99223345  0.23173423  0.44601033    -0.23740
H731        H  0.02716870  0.32568108  0.48953096     0.05430
H732        H  0.00515905  0.33993016  0.47273926     0.08660
H733        H  0.03190907  0.33027064  0.45832677     0.08660
H734        H  0.97589083  0.22368659  0.45214536     0.08640
H735        H  0.00759646  0.22114289  0.45101826     0.08640
H736        H  0.99154698  0.23112648  0.42625783     0.05420
C737        C  0.22197487  0.03271823  0.51605090    -0.20390
C738        C  0.23482385  0.02608528  0.49532200    -0.06950
C739        C  0.23592164  0.04343900  0.47663529     0.13920
C740        C  0.21962904  0.06186643  0.47672014    -0.20440
C741        C  0.20445555  0.06563146  0.49579863    -0.06960
C742        C  0.20672081  0.05197284  0.51638615     0.13900
C743        C  0.19138240  0.05625822  0.53785954    -0.23790
H744        H  0.22180711  0.02122180  0.53136202     0.15190
H745        H  0.21854397  0.07340890  0.46144497     0.15220
C746        C  0.25399718  0.04552511  0.45703419    -0.23740
H747        H  0.19520254  0.04377938  0.55247046     0.05430
H748        H  0.17276864  0.05424555  0.53297083     0.08660
H749        H  0.19425922  0.07425137  0.54463314     0.08660
H750        H  0.26145073  0.06343272  0.45738845     0.08640
H751        H  0.26913979  0.03403891  0.45862042     0.08640
H752        H  0.24580282  0.04296725  0.43937988     0.05420
C753        C  0.18856317  0.96243380  0.49472026    -0.20390
C754        C  0.19794272  0.93994866  0.49303013    -0.06950
C755        C  0.22221140  0.93729497  0.49505867     0.13920
C756        C  0.23627461  0.95733229  0.49755922    -0.20440
C757        C  0.22733842  0.98067016  0.49691415    -0.06960
C758        C  0.20227438  0.98268670  0.49467185     0.13900
C759        C  0.18809438  0.00461633  0.49019883    -0.23790
H760        H  0.16974864  0.96431713  0.49457839     0.15190
H761        H  0.25486568  0.95466362  0.49927231     0.15220
C762        C  0.23355010  0.91355678  0.49377419    -0.23740
H763        H  0.17125766  0.00061792  0.48140742     0.05430
H764        H  0.19634200  0.01668596  0.47752937     0.08660
H765        H  0.18315431  0.01288705  0.50732415     0.08660
H766        H  0.22874470  0.90472102  0.47689897     0.08640
H767        H  0.22784001  0.90281984  0.50914804     0.08640
H768        H  0.25286508  0.91474387  0.49436251     0.05420
C769        C  0.25802596  0.98584283  0.53896627    -0.20390
C770        C  0.26134403  0.00192483  0.51983726    -0.06950
C771        C  0.27901652  0.01937956  0.52334648     0.13920
C772        C  0.29233254  0.01928686  0.54400336    -0.20440
C773        C  0.29162485  0.00102062  0.56035659    -0.06960
C774        C  0.27362469  0.98446437  0.55841041     0.13900
C775        C  0.27121600  0.96503967  0.57626407    -0.23790
H776        H  0.24374742  0.97364622  0.53875958     0.15190
H777        H  0.30509058  0.03299692  0.54654961     0.15220
C778        C  0.28560240  0.03805824  0.50556706    -0.23740
H779        H  0.25656347  0.95319069  0.57182988     0.05430
H780        H  0.26780435  0.97250999  0.59419984     0.08660
H781        H  0.28749406  0.95448480  0.57663185     0.08660
H782        H  0.27136637  0.05085263  0.50337129     0.08640
H783        H  0.29140756  0.03001532  0.48870991     0.08640
H784        H  0.30070303  0.04867722  0.51142329     0.05420
C785        C  0.28505585  0.98508198  0.47870673    -0.20390
C786        C  0.26238429  0.99410897  0.47437885    -0.06950
C787        C  0.25516112  0.99337567  0.44991931     0.13920
C788        C  0.27236916  0.99257649  0.43169897    -0.20440
C789        C  0.29584214  0.98877193  0.43715614    -0.06960
C790        C  0.30149585  0.98196806  0.46049481     0.13900
C791        C  0.32502844  0.97155631  0.46630956    -0.23790
H792        H  0.29048698  0.98054681  0.49648305     0.15190
H793        H  0.26764814  0.99609599  0.41340019     0.15220
C794        C  0.23000181  0.99403070  0.44238701    -0.23740
H795        H  0.32592982  0.96576333  0.48515115     0.05430
H796        H  0.33922430  0.98433741  0.46349322     0.08660
H797        H  0.32823542  0.95604089  0.45482923     0.08660
H798        H  0.22125187  0.01014213  0.44836856     0.08640
H799        H  0.22072380  0.97852265  0.44939457     0.08640
H800        H  0.22835230  0.99344336  0.42270343     0.05420
C801        C  0.49502046  0.01690043  0.20546636    -0.20390
C802        C  0.50018222  0.01887469  0.23007906    -0.06950
C803        C  0.50171806  0.04233033  0.23927194     0.13920
C804        C  0.50295748  0.06142629  0.22336730    -0.20440
C805        C  0.50189769  0.05815720  0.19873011    -0.06960
C806        C  0.49586237  0.03595912  0.18991344     0.13900
C807        C  0.48970627  0.03228270  0.16406183    -0.23790
H808        H  0.49017658  0.00035590  0.19780338     0.15190
H809        H  0.50638498  0.07880805  0.23020363     0.15220
C810        C  0.50360527  0.04837527  0.26534933    -0.23740
H811        H  0.48346904  0.01423005  0.16063863     0.05430
H812        H  0.50503352  0.03514174  0.15235665     0.08660
H813        H  0.47554147  0.04455277  0.15900817     0.08660
H814        H  0.51796016  0.06104131  0.26813850     0.08640
H815        H  0.50760594  0.03335013  0.27675998     0.08640
H816        H  0.48706400  0.05659368  0.27150498     0.05420
C817        C  0.48162819  0.95659359  0.23599973    -0.20390
C818        C  0.49952975  0.97301794  0.23064838    -0.06950
C819        C  0.51556355  0.96637323  0.21197726     0.13920
C820        C  0.51012240  0.94754036  0.19694281    -0.20440
C821        C  0.49012626  0.93415670  0.20044283    -0.06960
C822        C  0.47637584  0.93788954  0.22078375     0.13900
C823        C  0.45568368  0.92253194  0.22598883    -0.23790
H824        H  0.47092332  0.95838655  0.25174948     0.15190
H825        H  0.52103658  0.94379466  0.18154719     0.15220
C826        C  0.53826802  0.97874757  0.20680387    -0.23740
H827        H  0.44662586  0.92771265  0.24273611     0.05430
H828        H  0.46155799  0.90410500  0.22779620     0.08660
H829        H  0.44296677  0.92376031  0.21122131     0.08660
H830        H  0.55002948  0.97773787  0.22229162     0.08640
H831        H  0.53524399  0.99696759  0.20135503     0.08640
H832        H  0.54797916  0.97047116  0.19181230     0.05420
C833        C  0.48546367  0.99636181  0.28939536    -0.20390
C834        C  0.48115475  0.99823446  0.26459875    -0.06950
C835        C  0.45701431  0.00128698  0.25797936     0.13920
C836        C  0.43934255  0.00201223  0.27565008    -0.20440
C837        C  0.44442570  0.00003154  0.29980360    -0.06960
C838        C  0.46772760  0.99618842  0.30658719     0.13900
C839        C  0.47473543  0.99177710  0.33207752    -0.23790
H840        H  0.50287859  0.99561989  0.29633162     0.15190
H841        H  0.42143609  0.00552705  0.27067336     0.15220
C842        C  0.44896785  0.00484371  0.23267413    -0.23740
H843        H  0.48498331  0.97529222  0.33301689     0.05430
H844        H  0.45962159  0.98967949  0.34427472     0.08660
H845        H  0.48573224  0.00639318  0.33851123     0.08660
H846        H  0.45560939  0.99100843  0.22064986     0.08640
H847        H  0.45423379  0.02237403  0.22633161     0.08640
H848        H  0.42966302  0.00435156  0.23128947     0.05420
C849        C  0.52939752  0.97221781  0.27170627    -0.20390
C850        C  0.52646650  0.99328651  0.25866875    -0.06950
C851        C  0.54614384  0.00902365  0.25904684     0.13920
C852        C  0.56314266  0.00644846  0.27694876    -0.20440
C853        C  0.56326363  0.98720539  0.29220734    -0.06960
C854        C  0.54730384  0.96902196  0.28819453     0.13900
C855        C  0.54878077  0.94622698  0.30161285    -0.23790
H856        H  0.51622719  0.95876028  0.27066991     0.15190
H857        H  0.57650583  0.01966501  0.27900795     0.15220
C858        C  0.55222558  0.02730976  0.24065420    -0.23740
H859        H  0.53584354  0.93334795  0.29510093     0.05430
H860        H  0.54532152  0.94893926  0.32084399     0.08660
H861        H  0.56641997  0.93848934  0.29917104     0.08660
H862        H  0.54177795  0.02693655  0.22442617     0.08640
H863        H  0.57037561  0.02424851  0.23430394     0.08640
H864        H  0.55154583  0.04501326  0.24871372     0.05420
C865        C  0.51432059  0.22326652  0.02975379    -0.20390
C866        C  0.49484940  0.23802303  0.02476672    -0.06950
C867        C  0.47583828  0.23710756  0.04193207     0.13920
C868        C  0.47697466  0.22111764  0.06112832    -0.20440
C869        C  0.49596017  0.20625765  0.06448730    -0.06960
C870        C  0.51527270  0.20807859  0.04918889     0.13900
C871        C  0.53689507  0.19345830  0.05297026    -0.23790
H872        H  0.52899278  0.22290291  0.01752844     0.15190
H873        H  0.46205905  0.21896020  0.07289526     0.15220
C874        C  0.45305606  0.25037639  0.04074829    -0.23740
H875        H  0.55086418  0.19773325  0.03990271     0.05430
H876        H  0.53287155  0.17460867  0.05104316     0.08660
H877        H  0.54379486  0.19674739  0.07108945     0.08660
H878        H  0.44125196  0.24160706  0.02807489     0.08640
H879        H  0.45519274  0.26913541  0.03689133     0.08640
H880        H  0.44361578  0.25008684  0.05808980     0.05420
C881        C  0.50497074  0.22327918  0.93707606    -0.20390
C882        C  0.50110790  0.19981535  0.94259335    -0.06950
C883        C  0.49232742  0.19414856  0.96526176     0.13920
C884        C  0.49034779  0.21160774  0.98266611    -0.20440
C885        C  0.49773898  0.23508170  0.97888308    -0.06960
C886        C  0.50244633  0.24112735  0.95441030     0.13900
C887        C  0.50459681  0.26589478  0.94550705    -0.23790
H888        H  0.51073415  0.22758048  0.91919387     0.15190
H889        H  0.48277750  0.20627514  0.99942237     0.15220
C890        C  0.48486089  0.16952773  0.97122255    -0.23740
H891        H  0.50647976  0.26652112  0.92582022     0.05430
H892        H  0.52028059  0.27441370  0.95250493     0.08660
H893        H  0.48864421  0.27602656  0.94976324     0.08660
H894        H  0.49998715  0.15742966  0.97051192     0.08640
H895        H  0.47150007  0.16365286  0.95833266     0.08640
H896        H  0.47718319  0.16830517  0.98938898     0.05420
C897        C  0.54174553  0.26112439  0.99032891    -0.20390
C898        C  0.52188705  0.26533876  0.00508933    -0.06950
C899        C  0.52563991  0.28020232  0.02536664     0.13920
C900        C  0.54688652  0.29165448  0.02817955    -0.20440
C901        C  0.56404971  0.29147829  0.01046038    -0.06960
C902        C  0.56209244  0.27502718  0.99183376     0.13900
C903        C  0.58075821  0.27269517  0.97303850    -0.23790
H904        H  0.54120701  0.24788295  0.97666339     0.15190
H905        H  0.54900533  0.30313010  0.04341948     0.15220
C906        C  0.50764354  0.28629712  0.04406458    -0.23740
H907        H  0.57615227  0.25941644  0.95942273     0.05430
H908        H  0.59736679  0.26719501  0.98139281     0.08660
H909        H  0.58320990  0.28967135  0.96381396     0.08660
H910        H  0.49009638  0.28104333  0.03931929     0.08640
H911        H  0.50669640  0.30557157  0.04642536     0.08640
H912        H  0.51246453  0.27818676  0.06129955     0.05420
C913        C  0.45515017  0.26275693  0.99070665    -0.20390
C914        C  0.47797147  0.27122206  0.99522324    -0.06950
C915        C  0.48064066  0.29623216  0.99319901     0.13920
C916        C  0.46090399  0.31049044  0.99512115    -0.20440
C917        C  0.43837078  0.30145389  0.99661082    -0.06960
C918        C  0.43525832  0.27744836  0.99230186     0.13900
C919        C  0.41123761  0.26707939  0.99128793    -0.23790
H920        H  0.45254560  0.24413350  0.98861378     0.15190
H921        H  0.46319115  0.32932230  0.99557052     0.15220
C922        C  0.50253397  0.30992334  0.98733929    -0.23740
H923        H  0.41190050  0.24785815  0.98851655     0.05430
H924        H  0.40145430  0.27493903  0.97630104     0.08660
H925        H  0.40177993  0.27059390  0.00824283     0.08660
H926        H  0.51749406  0.29979851  0.98098805     0.08640
H927        H  0.50771682  0.32068216  0.00288358     0.08640
H928        H  0.49886213  0.32202917  0.97234856     0.05420
C929        C  0.04694764  0.51859432  0.20724779    -0.20390
C930        C  0.06431668  0.50171343  0.20996544    -0.06950
C931        C  0.06294029  0.48653876  0.22956640     0.13920
C932        C  0.04287969  0.48695322  0.24432284    -0.20440
C933        C  0.02270584  0.50038743  0.23848184    -0.06960
C934        C  0.02618706  0.51803353  0.22058472     0.13900
C935        C  0.00827014  0.53565797  0.21294642    -0.23790
H936        H  0.04842164  0.53079151  0.19252309     0.15190
H937        H  0.04294268  0.47578199  0.25976746     0.15220
C938        C  0.08208641  0.46910447  0.23414716    -0.23740
H939        H  0.01455354  0.55357961  0.21689338     0.05430
H940        H  0.99154560  0.53325767  0.22157266     0.08660
H941        H  0.00514868  0.53406171  0.19350906     0.08660
H942        H  0.09877000  0.47846607  0.23696783     0.08640
H943        H  0.08400960  0.45716765  0.21864324     0.08640
H944        H  0.07838141  0.45832321  0.25015592     0.05420
C945        C  0.96283756  0.48536682  0.19331417    -0.20390
C946        C  0.94007248  0.48811739  0.20190541    -0.06950
C947        C  0.93621687  0.48627167  0.22658574     0.13920
C948        C  0.95567835  0.48578375  0.24200718    -0.20440
C949        C  0.97875402  0.48939136  0.23341477    -0.06960
C950        C  0.98205834  0.48435576  0.20850434     0.13900
C951        C  0.00411364  0.47556218  0.19649848    -0.23790
H952        H  0.96569770  0.48422419  0.17421873     0.15190
H953        H  0.95253134  0.48525635  0.26096522     0.15220
C954        C  0.91188362  0.48681068  0.23669944    -0.23740
H955        H  0.00001352  0.45968344  0.18591751     0.05430
H956        H  0.01793972  0.46977919  0.20855215     0.08660
H957        H  0.01088566  0.48896669  0.18400727     0.08660
H958        H  0.90183090  0.47180256  0.22964143     0.08640
H959        H  0.90308861  0.50337096  0.23160686     0.08640
H960        H  0.91191487  0.48566481  0.25644012     0.05420
C961        C  0.00564661  0.45264159  0.25989257    -0.20390
C962        C  0.99917731  0.47483388  0.26934820    -0.06950
C963        C  0.99329447  0.47515052  0.29427988     0.13920
C964        C  0.99993240  0.45626584  0.30876835    -0.20440
C965        C  0.00923665  0.43557516  0.29930303    -0.06960
C966        C  0.01103231  0.43332019  0.27444241     0.13900
C967        C  0.01981741  0.41100728  0.26326804    -0.23790
H968        H  0.00793343  0.45068905  0.24095896     0.15190
H969        H  0.99697073  0.45736469  0.32784089     0.15220
C970        C  0.97779761  0.49300303  0.30648491    -0.23740
H971        H  0.02078809  0.41232581  0.24355725     0.05430
H972        H  0.00788781  0.39642901  0.26783617     0.08660
H973        H  0.03755414  0.40694900  0.26994406     0.08660
H974        H  0.96536371  0.48402376  0.31864309     0.08640
H975        H  0.96645931  0.50261289  0.29413551     0.08640
H976        H  0.98837680  0.50511088  0.31740652     0.05420
C977        C  0.97669259  0.55684653  0.28058253    -0.20390
C978        C  0.99461022  0.56060218  0.29672332    -0.06950
C979        C  0.01365627  0.54517948  0.29683577     0.13920
C980        C  0.01374803  0.52569198  0.28160512    -0.20440
C981        C  0.99507791  0.52026646  0.26592334    -0.06960
C982        C  0.97630277  0.53737024  0.26506295     0.13900
C983        C  0.95408651  0.53573105  0.25077329    -0.23790
H984        H  0.96188508  0.56869450  0.28132840     0.15190
H985        H  0.02829148  0.51366782  0.28297340     0.15220
C986        C  0.03350475  0.54867986  0.31390835    -0.23740
H987        H  0.94546752  0.55307364  0.24906805     0.05430
H988        H  0.94136013  0.52461402  0.26036876     0.08660
H989        H  0.95664599  0.53004103  0.23220118     0.08660
H990        H  0.02695880  0.54785388  0.33253595     0.08640
H991        H  0.04158175  0.56602332  0.31074783     0.08640
H992        H  0.04723705  0.53509261  0.31169056     0.05420
C993        C  0.21391021  0.52743284  0.05550412    -0.20390
C994        C  0.21083078  0.50711855  0.06889119    -0.06950
C995        C  0.22547674  0.48790839  0.06419145     0.13920
C996        C  0.24043054  0.48840466  0.04411592    -0.20440
C997        C  0.23953489  0.50671548  0.02698471    -0.06960
C998        C  0.22788141  0.52777684  0.03479674     0.13900
C999        C  0.22786505  0.55043530  0.02100549    -0.23790
H1000       H  0.20318778  0.54251027  0.05989727     0.15190
H1001       H  0.25175960  0.47360462  0.04156429     0.15220
C1002       C  0.22421953  0.46631511  0.07942200    -0.23740
H1003       H  0.24549857  0.55827140  0.02114825     0.05430
H1004       H  0.21608305  0.56374327  0.02909551     0.08660
H1005       H  0.22165231  0.54770181  0.00261815     0.08660
H1006       H  0.20640921  0.45880875  0.07871631     0.08640
H1007       H  0.22837400  0.47089896  0.09813004     0.08640
H1008       H  0.23675358  0.45268090  0.07332979     0.05420
C1009       C  0.23834379  0.50038648  0.95677482    -0.20390
C1010       C  0.23044158  0.50345329  0.98081514    -0.06950
C1011       C  0.20568721  0.50661204  0.98386462     0.13920
C1012       C  0.19178742  0.51008900  0.96380458    -0.20440
C1013       C  0.19946600  0.50464118  0.94073323    -0.06960
C1014       C  0.22322977  0.50005742  0.93709018     0.13900
C1015       C  0.23264938  0.49444034  0.91266610    -0.23790
H1016       H  0.25670184  0.49815564  0.95312209     0.15190
H1017       H  0.17351669  0.51437068  0.96657368     0.15220
C1018       C  0.19141739  0.50408586  0.00649682    -0.23740
H1019       H  0.25169516  0.49086647  0.91297513     0.05430
H1020       H  0.22958748  0.50946219  0.90059246     0.08660
H1021       H  0.22382007  0.47871085  0.90550207     0.08660
H1022       H  0.18587052  0.52154592  0.01308239     0.08640
H1023       H  0.19954844  0.49366687  0.02054625     0.08640
H1024       H  0.17527631  0.49403564  0.00277193     0.05420
C1025       C  0.26315330  0.54214462  0.97969898    -0.20390
C1026       C  0.26689727  0.52495106  0.99763323    -0.06950
C1027       C  0.28705534  0.52809072  0.01238902     0.13920
C1028       C  0.30242837  0.54664934  0.00799049    -0.20440
C1029       C  0.29908283  0.56220250  0.98921294    -0.06960
C1030       C  0.27902003  0.56030352  0.97525060     0.13900
C1031       C  0.27462909  0.57722894  0.95524101    -0.23790
H1032       H  0.24764100  0.54197581  0.96898443     0.15190
H1033       H  0.31811388  0.54820811  0.01857205     0.15220
C1034       C  0.29438845  0.51187051  0.03219256    -0.23740
H1035       H  0.25803774  0.57346117  0.94592091     0.05430
H1036       H  0.28905029  0.57614352  0.94198793     0.08660
H1037       H  0.27364393  0.59529716  0.96244253     0.08660
H1038       H  0.31251502  0.50571818  0.02883157     0.08640
H1039       H  0.28382134  0.49606871  0.03399752     0.08640
H1040       H  0.29387185  0.52142801  0.04941098     0.05420
C1041       C  0.28587146  0.48140691  0.98403099    -0.20390
C1042       C  0.26415310  0.48008947  0.99633963    -0.06950
C1043       C  0.25618966  0.45670755  0.00099769     0.13920
C1044       C  0.27241863  0.43803194  0.00118306    -0.20440
C1045       C  0.29525092  0.44114758  0.99294580    -0.06960
C1046       C  0.30092897  0.46232733  0.98163864     0.13900
C1047       C  0.32282508  0.46489212  0.96671403    -0.23790
H1048       H  0.29147686  0.49748083  0.97576060     0.15190
H1049       H  0.26730819  0.42113529  0.00817044     0.15220
C1050       C  0.23121151  0.45026533  0.00581940    -0.23740
H1051       H  0.32335924  0.48197705  0.95735291     0.05430
H1052       H  0.32337875  0.45092217  0.95297355     0.08660
H1053       H  0.33872118  0.46381853  0.97770984     0.08660
H1054       H  0.21938475  0.46521135  0.00439239     0.08640
H1055       H  0.22938861  0.44247282  0.02383137     0.08640
H1056       H  0.22553368  0.43717176  0.99246222     0.05420
C1057       C  0.04288764  0.76338664  0.48872410    -0.20390
C1058       C  0.02336120  0.76632323  0.50418778    -0.06950
C1059       C  0.02690522  0.78106391  0.52462197     0.13920
C1060       C  0.04736854  0.79406154  0.52653783    -0.20440
C1061       C  0.06431565  0.79451500  0.50859374    -0.06960
C1062       C  0.06267217  0.77805802  0.48991973     0.13900
C1063       C  0.08110936  0.77627330  0.47083406    -0.23790
H1064       H  0.04262935  0.75015075  0.47504363     0.15190
H1065       H  0.04962617  0.80522478  0.54195448     0.15220
C1066       C  0.00953182  0.78438338  0.54475262    -0.23740
H1067       H  0.07655657  0.76307090  0.45712094     0.05430
H1068       H  0.09790268  0.77088715  0.47886434     0.08660
H1069       H  0.08311761  0.79338238  0.46175720     0.08660
H1070       H  0.99276479  0.79102695  0.53811343     0.08640
H1071       H  0.01534762  0.79761882  0.55790502     0.08640
H1072       H  0.00750258  0.76812466  0.55509706     0.05420
C1073       C  0.95588554  0.76020632  0.49618686    -0.20390
C1074       C  0.97870697  0.76979118  0.49696589    -0.06950
C1075       C  0.98003303  0.79483699  0.49395692     0.13920
C1076       C  0.95998451  0.80840816  0.49737746    -0.20440
C1077       C  0.93809755  0.79867750  0.50163095    -0.06960
C1078       C  0.93566937  0.77426260  0.49933517     0.13900
C1079       C  0.91219417  0.76288787  0.50189345    -0.23790
H1080       H  0.95390914  0.74139799  0.49585702     0.15190
H1081       H  0.96152263  0.82730566  0.49664446     0.15220
C1082       C  0.00090813  0.80933696  0.48645745    -0.23740
H1083       H  0.91348223  0.74354875  0.50058632     0.05430
H1084       H  0.90049609  0.76907005  0.48755333     0.08660
H1085       H  0.90443255  0.76736532  0.51949072     0.08660
H1086       H  0.01595988  0.79977202  0.47954261     0.08640
H1087       H  0.00649153  0.82061535  0.50147370     0.08640
H1088       H  0.99584294  0.82091769  0.47146630     0.05420
C1089       C  0.99130054  0.71210986  0.48111214    -0.20390
C1090       C  0.99938784  0.73542912  0.47785389    -0.06950
C1091       C  0.00405184  0.74169579  0.45346921     0.13920
C1092       C  0.00688318  0.72395086  0.43599162    -0.20440
C1093       C  0.00291601  0.70038196  0.44121662    -0.06960
C1094       C  0.99310222  0.69478992  0.46353633     0.13900
C1095       C  0.98340977  0.67078133  0.46877899    -0.23790
H1096       H  0.98319817  0.70689581  0.49766975     0.15190
H1097       H  0.01253763  0.72848552  0.41813703     0.15220
C1098       C  0.00525579  0.76654316  0.44473268    -0.23740
H1099       H  0.97391677  0.67028915  0.48607777     0.05430
H1100       H  0.99754036  0.65762238  0.46984842     0.08660
H1101       H  0.97092834  0.66571233  0.45466870     0.08660
H1102       H  0.02124517  0.77527342  0.45070463     0.08640
H1103       H  0.98938961  0.77628256  0.45016523     0.08640
H1104       H  0.00586624  0.76732428  0.42497583     0.05420
C1105       C  0.01998167  0.72217063  0.52544778    -0.20390
C1106       C  0.99966301  0.73632429  0.52340149    -0.06950
C1107       C  0.98210223  0.73301085  0.54166740     0.13920
C1108       C  0.98441852  0.71421410  0.55792258    -0.20440
C1109       C  0.00451876  0.70026847  0.55865123    -0.06960
C1110       C  0.02319512  0.70567821  0.54329040     0.13900
C1111       C  0.04715065  0.69488285  0.54587092    -0.23790
H1112       H  0.03386163  0.72374647  0.51241452     0.15190
H1113       H  0.97049399  0.71069006  0.57056956     0.15220
C1114       C  0.96170606  0.74893383  0.54691080    -0.23740
H1115       H  0.06054636  0.70494346  0.53587389     0.05430
H1116       H  0.04761446  0.67687940  0.53868395     0.08660
H1117       H  0.05237984  0.69493466  0.56487327     0.08660
H1118       H  0.94528532  0.74071063  0.54082365     0.08640
H1119       H  0.96360743  0.76659925  0.53964337     0.08640
H1120       H  0.96020415  0.75182526  0.56643645     0.05420
C1121       C  0.78572533  0.01771112  0.51395745    -0.20390
C1122       C  0.76464351  0.02030924  0.50104843    -0.06950
C1123       C  0.76243740  0.04171486  0.48723185     0.13920
C1124       C  0.78025392  0.05863464  0.48822856    -0.20440
C1125       C  0.80064415  0.05510787  0.50092681    -0.06960
C1126       C  0.80326778  0.03463056  0.51436209     0.13900
C1127       C  0.82453383  0.03061999  0.52951487    -0.23790
H1128       H  0.78852543  0.00199972  0.52430642     0.15190
H1129       H  0.77902776  0.07445028  0.47766553     0.15220
C1130       C  0.74323730  0.04789356  0.46985724    -0.23740
H1131       H  0.82321518  0.01419394  0.53995628     0.05430
H1132       H  0.82646902  0.04533239  0.54226238     0.08660
H1133       H  0.84041465  0.02932254  0.51823123     0.08660
H1134       H  0.72735881  0.05372093  0.47931163     0.08640
H1135       H  0.73982354  0.03385749  0.45685380     0.08640
H1136       H  0.74789507  0.06310671  0.45853259     0.05420
C1137       C  0.76850526  0.95809549  0.51249674    -0.20390
C1138       C  0.76520419  0.97649177  0.49567911    -0.06950
C1139       C  0.78029155  0.97566492  0.47508765     0.13920
C1140       C  0.79619589  0.95717797  0.47196123    -0.20440
C1141       C  0.79872427  0.93912689  0.48853455    -0.06960
C1142       C  0.78445864  0.93955850  0.50906867     0.13900
C1143       C  0.78666746  0.92130432  0.52827042    -0.23790
H1144       H  0.75956024  0.95823080  0.52938644     0.15190
H1145       H  0.80728165  0.95715131  0.45622879     0.15220
C1146       C  0.78111307  0.99382461  0.45564665    -0.23740
H1147       H  0.77547582  0.92530595  0.54398257     0.05430
H1148       H  0.80497082  0.92028148  0.53450366     0.08660
H1149       H  0.78099346  0.90411585  0.52131914     0.08660
H1150       H  0.79831331  0.00269305  0.45576652     0.08640
H1151       H  0.76750492  0.00711833  0.45708054     0.08640
H1152       H  0.77871795  0.98525170  0.43807457     0.05420
C1153       C  0.72705496  0.98519044  0.46238357    -0.20390
C1154       C  0.72749734  0.99962313  0.48297635    -0.06950
C1155       C  0.70743966  0.01434458  0.48635259     0.13920
C1156       C  0.69103898  0.01676905  0.46804637    -0.20440
C1157       C  0.69294821  0.00519448  0.44594537    -0.06960
C1158       C  0.71119789  0.98853734  0.44355552     0.13900
C1159       C  0.71467014  0.97402880  0.42143428    -0.23790
H1160       H  0.73940882  0.97117133  0.46025905     0.15190
H1161       H  0.67651730  0.02821295  0.47153627     0.15220
C1162       C  0.70262189  0.02849660  0.50870909    -0.23740
H1163       H  0.73016146  0.96238714  0.42265118     0.05430
H1164       H  0.71767196  0.98563854  0.40590788     0.08660
H1165       H  0.69933044  0.96259448  0.41873607     0.08660
H1166       H  0.71841205  0.03763341  0.51487396     0.08640
H1167       H  0.69554748  0.01708552  0.52285560     0.08640
H1168       H  0.68925950  0.04228688  0.50583388     0.05420
C1169       C  0.71943812  0.97527502  0.52684823    -0.20390
C1170       C  0.73580490  0.99396473  0.52654177    -0.06950
C1171       C  0.73675435  0.00815922  0.54796119     0.13920
C1172       C  0.72035860  0.00435657  0.56637057    -0.20440
C1173       C  0.70267060  0.98793612  0.56440298    -0.06960
C1174       C  0.70272540  0.97254855  0.54493888     0.13900
C1175       C  0.68429014  0.95398729  0.54260850    -0.23790
H1176       H  0.71856554  0.96365505  0.51162016     0.15190
H1177       H  0.71984428  0.01590413  0.58170775     0.15220
C1178       C  0.75305953  0.02836355  0.55257304    -0.23740
H1179       H  0.68696754  0.94313727  0.52639210     0.05430
H1180       H  0.66676628  0.96219034  0.54147862     0.08660
H1181       H  0.68482312  0.94228726  0.55835122     0.08660
H1182       H  0.75201738  0.04179251  0.53847543     0.08640
H1183       H  0.77095638  0.02180671  0.55554099     0.08640
H1184       H  0.74865576  0.03792468  0.56924656     0.05420
C1185       C  0.48520394  0.01730896  0.78880356    -0.20390
C1186       C  0.49369429  0.02060412  0.76518105    -0.06950
C1187       C  0.49769066  0.04462069  0.75856972     0.13920
C1188       C  0.49921476  0.06201953  0.77642539    -0.20440
C1189       C  0.49491852  0.05691854  0.80034156    -0.06960
C1190       C  0.48618263  0.03472620  0.80625828     0.13900
C1191       C  0.47810781  0.02862576  0.83110370    -0.23790
H1192       H  0.47771595  0.00087919  0.79435254     0.15190
H1193       H  0.50493385  0.07949949  0.77183877     0.15220
C1194       C  0.50048713  0.05286645  0.73324031    -0.23740
H1195       H  0.45981912  0.02234358  0.83051349     0.05430
H1196       H  0.47852222  0.04376192  0.84344644     0.08660
H1197       H  0.48932362  0.01451217  0.83838430     0.08660
H1198       H  0.48507563  0.04800164  0.72262188     0.08640
H1199       H  0.51676270  0.04626425  0.72521103     0.08640
H1200       H  0.50165304  0.07222026  0.73220408     0.05420
C1201       C  0.51073504  0.97235594  0.78072424    -0.20390
C1202       C  0.49336521  0.97545947  0.76300564    -0.06950
C1203       C  0.47553889  0.95763686  0.76202560     0.13920
C1204       C  0.47362695  0.94140385  0.78077624    -0.20440
C1205       C  0.48983017  0.94042576  0.79908713    -0.06960
C1206       C  0.50921780  0.95531461  0.79847191     0.13900
C1207       C  0.52813979  0.95368149  0.81692714    -0.23790
H1208       H  0.52507055  0.98458829  0.78170180     0.15190
H1209       H  0.45926992  0.92908980  0.78103701     0.15220
C1210       C  0.45916025  0.95251149  0.74172594    -0.23740
H1211       H  0.54251242  0.96618817  0.81333573     0.05430
H1212       H  0.53564668  0.93576144  0.81689143     0.08660
H1213       H  0.52094678  0.95768134  0.83486006     0.08660
H1214       H  0.46288236  0.96166630  0.72506930     0.08640
H1215       H  0.44090415  0.95606196  0.74740351     0.08640
H1216       H  0.46051282  0.93369708  0.73691830     0.05420
C1217       C  0.45316521  0.00348899  0.73747897    -0.20390
C1218       C  0.47654026  0.00247204  0.72882635    -0.06950
C1219       C  0.47947964  0.00524883  0.70350762     0.13920
C1220       C  0.46008647  0.00277714  0.68874215    -0.20440
C1221       C  0.43757132  0.99881810  0.69757157    -0.06960
C1222       C  0.43377349  0.00092790  0.72229680     0.13900
C1223       C  0.40977060  0.99864335  0.73298237    -0.23790
H1224       H  0.45007929  0.00352131  0.75651668     0.15190
H1225       H  0.46274729  0.00376337  0.66962900     0.15220
C1226       C  0.50150372  0.01153716  0.68995446    -0.23740
H1227       H  0.41018053  0.99930901  0.75274161     0.05430
H1228       H  0.40197557  0.98169352  0.72767422     0.08660
H1229       H  0.39859124  0.01325621  0.72682955     0.08660
H1230       H  0.51626624  0.01733672  0.70053371     0.08640
H1231       H  0.49781894  0.02658866  0.67804877     0.08640
H1232       H  0.50707246  0.99655253  0.67865952     0.05420
C1233       C  0.53963949  0.01143365  0.74220921    -0.20390
C1234       C  0.52133407  0.99560034  0.73670406    -0.06950
C1235       C  0.52767426  0.97622836  0.72154794     0.13920
C1236       C  0.54923251  0.97622155  0.70972024    -0.20440
C1237       C  0.56432389  0.99519641  0.71097674    -0.06960
C1238       C  0.56032439  0.01232594  0.72846433     0.13900
C1239       C  0.57716641  0.03216798  0.73164660    -0.23790
H1240       H  0.53746353  0.02431163  0.75608034     0.15190
H1241       H  0.55317809  0.96254009  0.69689002     0.15220
C1242       C  0.51201198  0.95585238  0.71588283    -0.23740
H1243       H  0.57145145  0.04426239  0.74605329     0.05430
H1244       H  0.57857769  0.04234009  0.71487845     0.08660
H1245       H  0.59460498  0.02509908  0.73628667     0.08660
H1246       H  0.49602210  0.96197867  0.70713303     0.08640
H1247       H  0.50840647  0.94538710  0.73198463     0.08640
H1248       H  0.52020186  0.94341915  0.70309350     0.05420
C1249       C  0.04054963  0.50220862  0.75831302    -0.20390
C1250       C  0.01757932  0.50377120  0.76810310    -0.06950
C1251       C  0.01602401  0.50898870  0.79321100     0.13920
C1252       C  0.03621655  0.50781328  0.80703927    -0.20440
C1253       C  0.05809750  0.50227580  0.79746361    -0.06960
C1254       C  0.06060015  0.50077995  0.77265901     0.13900
C1255       C  0.08403762  0.49595093  0.76146805    -0.23790
H1256       H  0.04272370  0.49966057  0.73933574     0.15190
H1257       H  0.03471239  0.51042877  0.82614628     0.15220
C1258       C  0.99479115  0.51661623  0.80744121    -0.23740
H1259       H  0.08294354  0.49482439  0.74176255     0.05430
H1260       H  0.09105841  0.47910458  0.76817393     0.08660
H1261       H  0.09628334  0.51023101  0.76603933     0.08660
H1262       H  0.97914951  0.52067840  0.79731554     0.08640
H1263       H  0.99884086  0.53304756  0.81713090     0.08640
H1264       H  0.99040581  0.50303688  0.82084626     0.05420
C1265       C  0.97021080  0.47935399  0.78005926    -0.20390
C1266       C  0.97238221  0.49681627  0.76227272    -0.06950
C1267       C  0.95135666  0.50942225  0.75663260     0.13920
C1268       C  0.93286480  0.50947142  0.77322340    -0.20440
C1269       C  0.93322139  0.49518878  0.79331900    -0.06960
C1270       C  0.95122151  0.47871129  0.79583644     0.13900
C1271       C  0.95125753  0.46160804  0.81622671    -0.23790
H1272       H  0.98449394  0.46751982  0.78326152     0.15190
H1273       H  0.91819512  0.52122058  0.77072709     0.15220
C1274       C  0.94620100  0.52228463  0.73375126    -0.23740
H1275       H  0.96665934  0.44978858  0.81550765     0.05430
H1276       H  0.93530054  0.45070407  0.81550809     0.08660
H1277       H  0.95164215  0.47112869  0.83345281     0.08660
H1278       H  0.92933585  0.51598122  0.72659433     0.08640
H1279       H  0.95878872  0.51949286  0.71920133     0.08640
H1280       H  0.94443901  0.54130561  0.73732584     0.05420
C1281       C  0.98322833  0.47047251  0.71862831    -0.20390
C1282       C  0.99929895  0.47460300  0.73728702    -0.06950
C1283       C  0.01500028  0.45555171  0.74252126     0.13920
C1284       C  0.01778499  0.43730912  0.72582147    -0.20440
C1285       C  0.00350997  0.43543051  0.70589837    -0.06960
C1286       C  0.98527203  0.45154311  0.70291956     0.13900
C1287       C  0.96863629  0.44948848  0.68235080    -0.23790
H1288       H  0.96965155  0.48302537  0.71524762     0.15190
H1289       H  0.03126369  0.42422506  0.72845518     0.15220
C1290       C  0.02792654  0.45159795  0.76555061    -0.23740
H1291       H  0.95517247  0.46349553  0.68270570     0.05430
H1292       H  0.95961035  0.43236667  0.68318681     0.08660
H1293       H  0.97830015  0.45081380  0.66521729     0.08660
H1294       H  0.02277260  0.46307678  0.78036754     0.08640
H1295       H  0.04700327  0.45291651  0.76236596     0.08640
H1296       H  0.02420064  0.43366506  0.77210116     0.05420
C1297       C  0.99313426  0.56072003  0.71914369    -0.20390
C1298       C  0.99793641  0.55465730  0.69558496    -0.06950
C1299       C  0.00762615  0.53244433  0.69074789     0.13920
C1300       C  0.00831544  0.51565667  0.70888748    -0.20440
C1301       C  0.99935695  0.52002881  0.73208850    -0.06960
C1302       C  0.99462224  0.54417461  0.73764825     0.13900
C1303       C  0.99056406  0.55338958  0.76243402    -0.23790
H1304       H  0.98728126  0.57838597  0.72295878     0.15190
H1305       H  0.01603971  0.49892734  0.70453155     0.15220
C1306       C  0.01831586  0.52656388  0.66681995    -0.23740
H1307       H  0.98832695  0.57268671  0.76265623     0.05430
H1308       H  0.00590921  0.54977990  0.77364221     0.08660
H1309       H  0.97434729  0.54633152  0.77006624     0.08660
H1310       H  0.03135990  0.54005505  0.66190670     0.08640
H1311       H  0.00484182  0.52552041  0.65287722     0.08640
H1312       H  0.02740334  0.50938300  0.66706592     0.05420
C1313       C  0.52275180  0.78125154  0.01794812    -0.20390
C1314       C  0.50249550  0.76718497  0.01812393    -0.06950
C1315       C  0.48445146  0.77394619  0.03488527     0.13920
C1316       C  0.48922704  0.79117532  0.05217633    -0.20440
C1317       C  0.51055603  0.80290172  0.05303145    -0.06960
C1318       C  0.52769801  0.79756913  0.03572656     0.13900
C1319       C  0.55199987  0.80761818  0.03650683    -0.23790
H1320       H  0.53592336  0.77823488  0.00448393     0.15190
H1321       H  0.47577202  0.79606273  0.06490799     0.15220
C1322       C  0.45945357  0.76543416  0.03477646    -0.23740
H1323       H  0.56424728  0.79768153  0.02485144     0.05430
H1324       H  0.55892772  0.80668635  0.05489759     0.08660
H1325       H  0.55209019  0.82586888  0.03004024     0.08660
H1326       H  0.45772044  0.74887464  0.04470777     0.08640
H1327       H  0.45228833  0.76397361  0.01667605     0.08640
H1328       H  0.44764219  0.77797818  0.04403483     0.05420
C1329       C  0.48232472  0.77764796  0.97141120    -0.20390
C1330       C  0.50161199  0.76226819  0.97454044    -0.06950
C1331       C  0.52101159  0.76543300  0.95815931     0.13920
C1332       C  0.51954126  0.78252198  0.94018580    -0.20440
C1333       C  0.50046377  0.79741403  0.93806856    -0.06960
C1334       C  0.48148344  0.79483760  0.95364415     0.13900
C1335       C  0.46081015  0.81111676  0.95237501    -0.23790
H1336       H  0.46794006  0.77698315  0.98378056     0.15190
H1337       H  0.53423107  0.78543780  0.92829560     0.15220
C1338       C  0.54446446  0.75317515  0.95923280    -0.23740
H1339       H  0.44735371  0.80684173  0.96599230     0.05430
H1340       H  0.45268024  0.80977253  0.93454417     0.08660
H1341       H  0.46651903  0.82940834  0.95538556     0.08660
H1342       H  0.54301100  0.73480512  0.95351451     0.08640
H1343       H  0.55262447  0.75490899  0.97689166     0.08640
H1344       H  0.55738849  0.76081996  0.94667417     0.05420
C1345       C  0.46240398  0.72877332  0.98393642    -0.20390
C1346       C  0.47970858  0.73105541  0.00183222    -0.06950
C1347       C  0.47750328  0.71576449  0.02197924     0.13920
C1348       C  0.45936869  0.69947241  0.02308356    -0.20440
C1349       C  0.44271491  0.69724283  0.00514790    -0.06960
C1350       C  0.44410012  0.71240663  0.98538887     0.13900
C1351       C  0.42725236  0.71072517  0.96500000    -0.23790
H1352       H  0.46355412  0.73873425  0.96774098     0.15190
H1353       H  0.45829994  0.68811573  0.03849870     0.15220
C1354       C  0.49337349  0.71575821  0.04337217    -0.23740
H1355       H  0.43201598  0.72264071  0.95015942     0.05430
H1356       H  0.40955711  0.71586033  0.97114159     0.08660
H1357       H  0.42709943  0.69263586  0.95781174     0.08660
H1358       H  0.50451548  0.73122213  0.04477979     0.08640
H1359       H  0.50440823  0.69976556  0.04312772     0.08640
H1360       H  0.48275108  0.71575478  0.05999231     0.05420
C1361       C  0.54052420  0.73178219  0.01715179    -0.20390
C1362       C  0.52281292  0.72972522  0.99954221    -0.06950
C1363       C  0.52432672  0.70947589  0.98437355     0.13920
C1364       C  0.54230796  0.69303634  0.98750029    -0.20440
C1365       C  0.55980174  0.69620153  0.00435565    -0.06960
C1366       C  0.55906941  0.71588304  0.01914911     0.13900
C1367       C  0.57724939  0.71944513  0.03807454    -0.23790
H1368       H  0.53983395  0.74501988  0.03068503     0.15190
H1369       H  0.54275316  0.67743192  0.97649523     0.15220
C1370       C  0.50794098  0.70448022  0.96406185    -0.23740
H1371       H  0.57415628  0.73571831  0.04845597     0.05430
H1372       H  0.59475424  0.72070040  0.02961569     0.08660
H1373       H  0.57706830  0.70448708  0.05065303     0.08660
H1374       H  0.49910836  0.72025257  0.95738393     0.08640
H1375       H  0.49494799  0.69118457  0.96961674     0.08640
H1376       H  0.51785403  0.69752006  0.94851149     0.05420
C1377       C  0.80660074  0.49542912  0.03324487    -0.20390
C1378       C  0.79873854  0.49531518  0.05678123    -0.06950
C1379       C  0.77464827  0.49346484  0.06094585     0.13920
C1380       C  0.75916868  0.49317849  0.04138363    -0.20440
C1381       C  0.76661156  0.49623218  0.01725124    -0.06960
C1382       C  0.79156731  0.49809943  0.01383990     0.13900
C1383       C  0.80484272  0.50492503  0.99159864    -0.23790
H1384       H  0.82529348  0.49622752  0.03007625     0.15190
H1385       H  0.74086854  0.49107482  0.04527240     0.15220
C1386       C  0.76519585  0.49251663  0.08596779    -0.23740
H1387       H  0.81690074  0.51955931  0.99567660     0.05430
H1388       H  0.79459424  0.51145472  0.97681176     0.08660
H1389       H  0.81552273  0.48978250  0.98562373     0.08660
H1390       H  0.77029201  0.50852705  0.09581797     0.08640
H1391       H  0.77233885  0.47693840  0.09519619     0.08640
H1392       H  0.74587015  0.49132170  0.08627504     0.05420
C1393       C  0.77036380  0.47326722  0.96885890    -0.20390
C1394       C  0.75683324  0.49404937  0.97145866    -0.06950
C1395       C  0.75494049  0.50793938  0.95010644     0.13920
C1396       C  0.77198581  0.50531119  0.93196981    -0.20440
C1397       C  0.78846476  0.48735647  0.93259198    -0.06960
C1398       C  0.78621814  0.46995224  0.95002727     0.13900
C1399       C  0.80208487  0.44886271  0.95000190    -0.23790
H1400       H  0.77130374  0.46089540  0.98323987     0.15190
H1401       H  0.77285847  0.51771852  0.91741650     0.15220
C1402       C  0.73453731  0.52325833  0.94360080    -0.23740
H1403       H  0.79780802  0.43666291  0.96475377     0.05430
H1404       H  0.82051140  0.45428886  0.95209678     0.08660
H1405       H  0.80022162  0.43925259  0.93293769     0.08660
H1406       H  0.73077793  0.53720558  0.95638479     0.08640
H1407       H  0.71916721  0.51207128  0.94065721     0.08640
H1408       H  0.73743329  0.53237688  0.92638516     0.05420
C1409       C  0.73397446  0.45647709  0.00845906    -0.20390
C1410       C  0.72769113  0.47892595  0.99948228    -0.06950
C1411       C  0.70452551  0.48065817  0.98974141     0.13920
C1412       C  0.68980436  0.46125202  0.98993824    -0.20440
C1413       C  0.69733593  0.43872917  0.99572310    -0.06960
C1414       C  0.71970994  0.43644929  0.00586860     0.13900
C1415       C  0.72915729  0.41305397  0.01338727    -0.23790
H1416       H  0.75091277  0.45394194  0.01636569     0.15190
H1417       H  0.67201769  0.46389720  0.98420484     0.15220
C1418       C  0.69297057  0.50176704  0.97859455    -0.23740
H1419       H  0.74758508  0.41422408  0.01921871     0.05430
H1420       H  0.72848846  0.40055627  0.99826502     0.08660
H1421       H  0.71886676  0.40635310  0.02867886     0.08660
H1422       H  0.70364208  0.51731481  0.97670357     0.08640
H1423       H  0.67745988  0.50684645  0.98941151     0.08640
H1424       H  0.68682076  0.49719093  0.96046506     0.05420
C1425       C  0.72873358  0.56514812  0.99623216    -0.20390
C1426       C  0.70629988  0.56314181  0.00588036    -0.06950
C1427       C  0.70124790  0.54358543  0.02010382     0.13920
C1428       C  0.71641582  0.52432324  0.01946491    -0.20440
C1429       C  0.73588576  0.52349617  0.00364541    -0.06960
C1430       C  0.74438939  0.54596059  0.99647507     0.13900
C1431       C  0.76907884  0.55055161  0.98881817    -0.23790
H1432       H  0.73350353  0.58116368  0.98715797     0.15190
H1433       H  0.71101978  0.50889783  0.02905124     0.15220
C1434       C  0.67921556  0.54244467  0.03486166    -0.23740
H1435       H  0.77225803  0.56954670  0.98636305     0.05430
H1436       H  0.77310697  0.54237195  0.97155246     0.08660
H1437       H  0.78112216  0.54467094  0.00292352     0.08660
H1438       H  0.66363632  0.54291506  0.02329647     0.08640
H1439       H  0.67836372  0.52614893  0.04555783     0.08640
H1440       H  0.67859443  0.55752374  0.04732257     0.05420
loop_ 
_geom_bond_atom_site_label_1 
_geom_bond_atom_site_label_2 
_geom_bond_distance 
_geom_bond_site_symmetry_2 
_ccdc_geom_bond_type 
C1         C1381   1.597   1_556  S
C1         C1394   1.587       .  S
C1         C1410   1.592       .  S
C1         C1429   1.580   1_556  S
C2         C1314   1.583   1_556  S
C2         C1330   1.588       .  S
C2         C1346   1.577   1_556  S
C2         C1362   1.583       .  S
C3         C1250   1.572   1_655  S
C3         C1266   1.567       .  S
C3         C1282   1.588       .  S
C3         C1301   1.579       .  S
C4         C1186   1.597   1_565  S
C4         C1202   1.586       .  S
C4         C1218   1.568   1_565  S
C4         C1234   1.578       .  S
C5         C1122   1.584   1_565  S
C5         C1138   1.602       .  S
C5         C1154   1.588       .  S
C5         C1170   1.590       .  S
C6         C1058   1.578   1_655  S
C6         C1074   1.575       .  S
C6         C1090   1.599       .  S
C6         C1106   1.592       .  S
C7          C997   1.587       .  S
C7         C1010   1.585   1_554  S
C7         C1026   1.580   1_554  S
C7         C1042   1.593   1_554  S
O8          Cu16   2.015   1_654  S
O8           C18   1.277       .  A
O9          Cu16   1.993       .  S
O9           C19   1.276       .  A
O10         Cu16   2.007   1_655  S
O10          C20   1.276       .  A
O11         Cu16   2.001   1_554  S
O11          C21   1.276       .  A
O12         Cu17   2.001   1_455  S
O12          C21   1.276       .  A
O13         Cu17   1.982   1_556  S
O13          C20   1.275       .  A
O14         Cu17   2.006   1_456  S
O14          C19   1.276       .  A
O15         Cu17   1.994       .  S
O15          C18   1.275       .  A
Cu16        Cu17   2.382   1_456  S
C18          C60   1.458       .  S
C19          C84   1.453       .  S
C20          C35   1.452       .  S
C21         C590   1.456       .  S
N22          N23   1.327       .  A
N22          C26   1.353       .  A
N22         Cu30   2.108       .  S
N23          C24   1.337       .  A
N23         Cu29   2.058       .  S
C24          C25   1.371       .  A
C24          H27   1.082       .  S
C25        C1269   1.469       .  S
C25          C26   1.387       .  A
C26          H28   1.082       .  S
Cu29         N32   2.056       .  S
Cu30         N40   2.105       .  S
Cu31         N33   2.032       .  S
Cu31         N39   2.032       .  S
N32          N33   1.316       .  A
N32          C36   1.346       .  A
N33          C34   1.337       .  A
C34          C35   1.376       .  A
C34          H37   1.082       .  S
C35          C36   1.384       .  A
C36          H38   1.082       .  S
N39          N40   1.321       .  A
N39          C43   1.331       .  A
N40          C41   1.357       .  A
C41          C42   1.394       .  A
C41          H44   1.081       .  S
C42        C1397   1.476       .  S
C42          C43   1.371       .  A
C43          H45   1.078       .  S
C46         C933   1.590   1_655  S
C46         C949   1.581       .  S
C46         C962   1.587       .  S
C46         C981   1.592       .  S
N47          N48   1.324       .  A
N47          C51   1.363       .  A
N47         Cu55   2.143       .  S
N48          C49   1.333       .  A
N48         Cu54   2.052       .  S
C49          C50   1.377       .  A
C49          H52   1.082       .  S
C50        C1378   1.497       .  S
C50          C51   1.402       .  A
C51          H53   1.082       .  S
Cu54         N57   2.053       .  S
Cu55         N65   2.143       .  S
Cu56         N58   2.045       .  S
Cu56         N64   2.043       .  S
N57          N58   1.313       .  A
N57          C61   1.343       .  A
N58          C59   1.344       .  A
C59          C60   1.382       .  A
C59          H62   1.082       .  S
C60          C61   1.384       .  A
C61          H63   1.082       .  S
N64          N65   1.325       .  A
N64          C68   1.332       .  A
N65          C66   1.362       .  A
C66          C67   1.401       .  A
C66          H69   1.082       .  S
C67         C946   1.488       .  S
C67          C68   1.372       .  A
C68          H70   1.083       .  S
N71          N72   1.317       .  A
N71          C75   1.361       .  A
N71         Cu79   2.124       .  S
N72          C73   1.324       .  A
N72         Cu78   2.008       .  S
C73          C74   1.372       .  A
C73          H76   1.082       .  S
C74        C1013   1.490       .  S
C74          C75   1.404       .  A
C75          H77   1.081       .  S
Cu78         N81   2.011       .  S
Cu79         N89   2.133       .  S
Cu80         N82   2.062       .  S
Cu80         N88   2.063       .  S
N81          N82   1.311       .  A
N81          C85   1.337       .  A
N82          C83   1.347       .  A
C83          C84   1.387       .  A
C83          H86   1.082       .  S
C84          C85   1.375       .  A
C85          H87   1.082       .  S
N88          N89   1.328       .  A
N88          C92   1.332       .  A
N89          C90   1.358       .  A
C90          C91   1.396       .  A
C90          H93   1.082       .  S
C91        C1253   1.485       .  S
C91          C92   1.373       .  A
C92          H94   1.083       .  S
O95        Cu103   1.999       .  S
O95         C105   1.277   1_554  A
O96        Cu103   2.003       .  S
O96         C106   1.277   1_554  A
O97        Cu103   1.979       .  S
O97         C107   1.272   1_554  A
O98        Cu103   1.975       .  S
O98         C108   1.274   1_554  A
O99        Cu104   2.021       .  S
O99         C108   1.278       .  A
O100       Cu104   2.020       .  S
O100        C107   1.279       .  A
O101       Cu104   2.001       .  S
O101        C106   1.276       .  A
O102       Cu104   1.999       .  S
O102        C105   1.275       .  A
Cu103      Cu104   2.381   1_554  S
C105        C518   1.458       .  S
C106        C566   1.460       .  S
C107        C662   1.454   1_556  S
C108        C122   1.457       .  S
N109        N110   1.325       .  A
N109        C113   1.355   1_556  A
N109       Cu117   2.103   1_556  S
N110        C111   1.340       .  A
N110       Cu116   2.074       .  S
C111        C112   1.379       .  A
C111        H114   1.082       .  S
C112       C1426   1.481   1_556  S
C112        C113   1.389   1_556  A
C113        H115   1.082       .  S
Cu116       N119   2.071       .  S
Cu117       N127   2.100       .  S
Cu118       N120   2.038       .  S
Cu118       N126   2.035       .  S
N119        N120   1.319   1_556  A
N119        C123   1.349       .  A
N120        C121   1.336       .  A
C121        C122   1.376   1_554  A
C121        H124   1.082       .  S
C122        C123   1.386       .  A
C123        H125   1.082       .  S
N126        N127   1.321       .  A
N126        C130   1.337       .  A
N127        C128   1.353       .  A
C128        C129   1.392       .  A
C128        H131   1.082   1_554  S
C129       C1365   1.475       .  S
C129        C130   1.372       .  A
C130        H132   1.082       .  S
C133        C866   1.601       .  S
C133        C885   1.595   1_554  S
C133        C898   1.579       .  S
C133        C914   1.577   1_554  S
O134       Cu142   2.019   1_564  S
O134        C144   1.278       .  A
O135       Cu142   2.005       .  S
O135        C145   1.278       .  A
O136       Cu142   1.972   1_565  S
O136        C146   1.273       .  A
O137       Cu142   1.958   1_554  S
O137        C147   1.273       .  A
O138       Cu143   2.026   1_545  S
O138        C147   1.278       .  A
O139       Cu143   2.018   1_556  S
O139        C146   1.279       .  A
O140       Cu143   1.991   1_546  S
O140        C145   1.273       .  A
O141       Cu143   1.973       .  S
O141        C144   1.274       .  A
Cu142      Cu143   2.381   1_546  S
C144        C186   1.458       .  S
C145        C210   1.452       .  S
C146        C161   1.456       .  S
C147        C542   1.456       .  S
N148        N149   1.322       .  A
N148        C152   1.352       .  A
N148       Cu156   2.096       .  S
N149        C150   1.338       .  A
N149       Cu155   2.046       .  S
C150        C151   1.374       .  A
C150        H153   1.082       .  S
C151       C1205   1.473       .  S
C151        C152   1.389       .  A
C152        H154   1.082       .  S
Cu155       N158   2.050       .  S
Cu156       N166   2.097       .  S
Cu157       N159   2.053       .  S
Cu157       N165   2.055       .  S
N158        N159   1.319       .  A
N158        C162   1.338       .  A
N159        C160   1.345       .  A
C160        C161   1.381       .  A
C160        H163   1.082       .  S
C161        C162   1.379       .  A
C162        H164   1.082       .  S
N165        N166   1.324       .  A
N165        C169   1.339       .  A
N166        C167   1.353       .  A
C167        C168   1.388       .  A
C167        H170   1.082       .  S
C168       C1333   1.475       .  S
C168        C169   1.374       .  A
C169        H171   1.082       .  S
C172        C802   1.572   1_565  S
C172        C818   1.586       .  S
C172        C834   1.594       .  S
C172        C850   1.588       .  S
N173        N174   1.317       .  A
N173        C177   1.351       .  A
N173       Cu181   2.090       .  S
N174        C175   1.336       .  A
N174       Cu180   2.035       .  S
C175        C176   1.379       .  A
C175        H178   1.078       .  S
C176       C1317   1.487       .  S
C176        C177   1.396       .  A
C177        H179   1.082       .  S
Cu180       N183   2.036       .  S
Cu181       N191   2.095       .  S
Cu182       N184   2.067       .  S
Cu182       N190   2.068       .  S
N183        N184   1.319       .  A
N183        C187   1.334       .  A
N184        C185   1.349       .  A
C185        C186   1.386       .  A
C185        H188   1.082       .  S
C186        C187   1.375       .  A
C187        H189   1.082       .  S
N190        N191   1.326       .  A
N190        C194   1.339       .  A
N191        C192   1.351       .  A
C192        C193   1.386       .  A
C192        H195   1.082       .  S
C193        C821   1.472       .  S
C193        C194   1.376       .  A
C194        H196   1.082       .  S
N197        N198   1.325       .  A
N197        C201   1.358       .  A
N197       Cu205   2.130       .  S
N198        C199   1.337       .  A
N198       Cu204   2.047       .  S
C199        C200   1.372       .  A
C199        H202   1.082       .  S
C200        C882   1.483       .  S
C200        C201   1.395       .  A
C201        H203   1.082       .  S
Cu204       N207   2.047       .  S
Cu205       N215   2.130       .  S
Cu206       N208   2.042       .  S
Cu206       N214   2.043       .  S
N207        N208   1.315       .  A
N207        C211   1.342       .  A
N208        C209   1.342       .  A
C209        C210   1.379       .  A
C209        H212   1.082       .  S
C210        C211   1.380       .  A
C211        H213   1.082       .  S
N214        N215   1.325       .  A
N214        C218   1.336       .  A
N215        C216   1.358       .  A
C216        C217   1.395       .  A
C216        H219   1.082       .  S
C217       C1189   1.480       .  S
C217        C218   1.371       .  A
C218        H220   1.082       .  S
O221       Cu229   2.003       .  S
O221        C231   1.277   1_655  A
O222       Cu229   2.017       .  S
O222        C232   1.279   1_655  A
O223       Cu229   1.965       .  S
O223        C233   1.272   1_655  A
O224       Cu229   1.972       .  S
O224        C234   1.272   1_655  A
O225       Cu230   2.006       .  S
O225        C234   1.278       .  A
O226       Cu230   2.020       .  S
O226        C233   1.279       .  A
O227       Cu230   1.968       .  S
O227        C232   1.272       .  A
O228       Cu230   1.974       .  S
O228        C231   1.271       .  A
Cu229      Cu230   2.383   1_655  S
C231        C422   1.443       .  S
C232        C494   1.455       .  S
C233        C614   1.456       .  S
C234        C248   1.452       .  S
N235        N236   1.324       .  A
N235        C239   1.353       .  A
N235       Cu243   2.104       .  S
N236        C237   1.338       .  A
N236       Cu242   2.052       .  S
C237        C238   1.375       .  A
C237        H240   1.081       .  S
C238       C1298   1.482       .  S
C238        C239   1.392       .  A
C239        H241   1.082   1_655  S
Cu242       N245   2.057       .  S
Cu243       N253   2.099   1_655  S
Cu244       N246   2.032       .  S
Cu244       N252   2.036       .  S
N245        N246   1.318   1_655  A
N245        C249   1.340       .  A
N246        C247   1.340       .  A
C247        C248   1.376       .  A
C247        H250   1.082       .  S
C248        C249   1.382   1_455  A
C249        H251   1.082       .  S
N252        N253   1.319       .  A
N252        C256   1.333       .  A
N253        C254   1.356   1_455  A
C254        C255   1.397   1_655  A
C254        H257   1.082       .  S
C255       C1109   1.486       .  S
C255        C256   1.376       .  A
C256        H258   1.080       .  S
O259       Cu267   2.007       .  S
O259        C269   1.277       .  A
O260       Cu267   1.996   1_565  S
O260        C270   1.276   1_565  A
O261       Cu267   1.974   1_565  S
O261        C271   1.272   1_565  A
O262       Cu267   1.973       .  S
O262        C272   1.274       .  A
O263       Cu268   2.012       .  S
O263        C272   1.277       .  A
O264       Cu268   2.024       .  S
O264        C271   1.280       .  A
O265       Cu268   1.982       .  S
O265        C270   1.273       .  A
O266       Cu268   1.985       .  S
O266        C269   1.273       .  A
Cu267      Cu268   2.382       .  S
C269        C638   1.450       .  S
C270        C286   1.446       .  S
C271        C398   1.457       .  S
C272        C470   1.454       .  S
N273        N274   1.326   1_565  A
N273        C277   1.354       .  A
N273       Cu281   2.111       .  S
N274        C275   1.336       .  A
N274       Cu280   2.051       .  S
C275        C276   1.371   1_545  A
C275        H278   1.082       .  S
C276       C1173   1.473       .  S
C276        C277   1.390       .  A
C277        H279   1.081       .  S
Cu280       N283   2.045       .  S
Cu281       N291   2.107       .  S
Cu282       N284   2.028   1_565  S
Cu282       N290   2.032       .  S
N283        N284   1.315       .  A
N283        C287   1.342       .  A
N284        C285   1.339       .  A
C285        C286   1.375       .  A
C285        H288   1.082   1_545  S
C286        C287   1.380       .  A
C287        H289   1.082       .  S
N290        N291   1.321       .  A
N290        C294   1.330       .  A
N291        C292   1.358       .  A
C292        C293   1.396       .  A
C292        H295   1.082       .  S
C293       C1237   1.478       .  S
C293        C294   1.372       .  A
C294        H296   1.082       .  S
C297        C738   1.576       .  S
C297        C757   1.591   1_545  S
C297        C770   1.593       .  S
C297        C786   1.579   1_545  S
O298       Cu306   2.004   1_655  S
O298        C308   1.276       .  A
O299       Cu306   2.000   1_545  S
O299        C309   1.276       .  A
O300       Cu306   2.009   1_645  S
O300        C310   1.278       .  A
O301       Cu306   2.011       .  S
O301        C311   1.279       .  A
O302       Cu307   1.986       .  S
O302        C311   1.274       .  A
O303       Cu307   1.984   1_645  S
O303        C310   1.273       .  A
O304       Cu307   2.006   1_545  S
O304        C309   1.278       .  A
O305       Cu307   2.005   1_655  S
O305        C308   1.278       .  A
Cu306      Cu307   2.380       .  S
C308        C325   1.462       .  S
C309        C446   1.461       .  S
C310        C350   1.453       .  S
C311        C374   1.459       .  S
N312        N313   1.322       .  A
N312        C316   1.356       .  A
N312       Cu320   2.104       .  S
N313        C314   1.337       .  A
N313       Cu319   2.073       .  S
C314        C315   1.385       .  A
C314        H317   1.082       .  S
C315       C1077   1.494       .  S
C315        C316   1.395       .  A
C316        H318   1.081       .  S
Cu319       N322   2.077       .  S
Cu320       N330   2.103       .  S
Cu321       N323   2.050       .  S
Cu321       N329   2.051       .  S
N322        N323   1.320       .  A
N322        C326   1.346       .  A
N323        C324   1.341       .  A
C324        C325   1.378       .  A
C324        H327   1.082       .  S
C325        C326   1.385       .  A
C326        H328   1.082       .  S
N329        N330   1.319       .  A
N329        C333   1.338       .  A
N330        C331   1.353       .  A
C331        C332   1.399       .  A
C331        H334   1.079       .  S
C332       C1141   1.497       .  S
C332        C333   1.382       .  A
C333        H335   1.082       .  S
C336        C674   1.569   1_655  S
C336        C690   1.578       .  S
C336        C706   1.587       .  S
C336        C722   1.600       .  S
N337        N338   1.321       .  A
N337        C341   1.359       .  A
N337       Cu345   2.104       .  S
N338        C339   1.330       .  A
N338       Cu344   2.044       .  S
C339        C340   1.375       .  A
C339        H342   1.082       .  S
C340        C693   1.481       .  S
C340        C341   1.395       .  A
C341        H343   1.082       .  S
Cu344       N347   2.039       .  S
Cu345       N355   2.109       .  S
Cu346       N348   2.049       .  S
Cu346       N354   2.048       .  S
N347        N348   1.316       .  A
N347        C351   1.342       .  A
N348        C349   1.341       .  A
C349        C350   1.381       .  A
C349        H352   1.082       .  S
C350        C351   1.379       .  A
C351        H353   1.082       .  S
N354        N355   1.326       .  A
N354        C358   1.336       .  A
N355        C356   1.354       .  A
C356        C357   1.390       .  A
C356        H359   1.082       .  S
C357       C1125   1.475       .  S
C357        C358   1.370       .  A
C358        H360   1.082       .  S
N361        N362   1.322       .  A
N361        C365   1.355       .  A
N361       Cu369   2.099       .  S
N362        C363   1.335       .  A
N362       Cu368   2.064       .  S
C363        C364   1.384       .  A
C363        H366   1.082       .  S
C364        C754   1.496       .  S
C364        C365   1.396       .  A
C365        H367   1.080       .  S
Cu368       N371   2.068       .  S
Cu369       N379   2.096       .  S
Cu370       N372   2.045       .  S
Cu370       N378   2.048       .  S
N371        N372   1.319       .  A
N371        C375   1.343       .  A
N372        C373   1.342       .  A
C373        C374   1.379       .  A
C373        H376   1.082       .  S
C374        C375   1.384       .  A
C375        H377   1.082       .  S
N378        N379   1.319       .  A
N378        C382   1.332       .  A
N379        C380   1.357       .  A
C380        C381   1.399       .  A
C380        H383   1.080       .  S
C381       C1061   1.495       .  S
C381        C382   1.382       .  A
C382        H384   1.082       .  S
N385        N386   1.325       .  A
N385        C389   1.356       .  A
N385       Cu393   2.111       .  S
N386        C387   1.335       .  A
N386       Cu392   2.066       .  S
C387        C388   1.381       .  A
C387        H390   1.082       .  S
C388       C1221   1.495       .  S
C388        C389   1.397       .  A
C389        H391   1.080   1_565  S
Cu392       N395   2.071       .  S
Cu393       N403   2.105       .  S
Cu394       N396   2.031       .  S
Cu394       N402   2.037       .  S
N395        N396   1.316   1_565  A
N395        C399   1.343       .  A
N396        C397   1.341       .  A
C397        C398   1.377       .  A
C397        H400   1.082       .  S
C398        C399   1.386   1_545  A
C399        H401   1.082       .  S
N402        N403   1.318   1_545  A
N402        C406   1.328       .  A
N403        C404   1.360       .  A
C404        C405   1.401       .  A
C404        H407   1.081       .  S
C405        C773   1.493   1_565  S
C405        C406   1.379   1_565  A
C406        H408   1.082       .  S
N409        N410   1.325       .  A
N409        C413   1.355       .  A
N409       Cu417   2.124       .  S
N410        C411   1.335       .  A
N410       Cu416   2.039       .  S
C411        C412   1.369       .  A
C411        H414   1.082       .  S
C412       C1285   1.474       .  S
C412        C413   1.394       .  A
C413        H415   1.082   1_455  S
Cu416       N419   2.039       .  S
Cu417       N427   2.123       .  S
Cu418       N420   2.024       .  S
Cu418       N426   2.023       .  S
N419        N420   1.315       .  A
N419        C423   1.341       .  A
N420        C421   1.340       .  A
C421        C422   1.375       .  A
C421        H424   1.082       .  S
C422        C423   1.378       .  A
C423        H425   1.082       .  S
N426        N427   1.324       .  A
N426        C430   1.333       .  A
N427        C428   1.356   1_455  A
C428        C429   1.394   1_655  A
C428        H431   1.082       .  S
C429        C709   1.470       .  S
C429        C430   1.365       .  A
C430        H432   1.082       .  S
N433        N434   1.322       .  A
N433        C437   1.354       .  A
N433       Cu441   2.091       .  S
N434        C435   1.337       .  A
N434       Cu440   2.068       .  S
C435        C436   1.384       .  A
C435        H438   1.082       .  S
C436        C677   1.492       .  S
C436        C437   1.393       .  A
C437        H439   1.080       .  S
Cu440       N443   2.071       .  S
Cu441       N451   2.091       .  S
Cu442       N444   2.052       .  S
Cu442       N450   2.053       .  S
N443        N444   1.320       .  A
N443        C447   1.345       .  A
N444        C445   1.342       .  A
C445        C446   1.379       .  A
C445        H448   1.082       .  S
C446        C447   1.384       .  A
C447        H449   1.082       .  S
N450        N451   1.322       .  A
N450        C454   1.338       .  A
N451        C452   1.352       .  A
C452        C453   1.388       .  A
C452        H455   1.082       .  S
C453        C741   1.472       .  S
C453        C454   1.374       .  A
C454        H456   1.082       .  S
N457        N458   1.321       .  A
N457        C461   1.354       .  A
N457       Cu465   2.119       .  S
N458        C459   1.336       .  A
N458       Cu464   2.063       .  S
C459        C460   1.391       .  A
C459        H462   1.077       .  S
C460       C1157   1.521       .  S
C460        C461   1.407       .  A
C461        H463   1.075   1_545  S
Cu464       N467   2.064       .  S
Cu465       N475   2.113   1_545  S
Cu466       N468   2.027   1_565  S
Cu466       N474   2.024       .  S
N467        N468   1.318       .  A
N467        C471   1.349       .  A
N468        C469   1.333       .  A
C469        C470   1.373       .  A
C469        H472   1.082   1_545  S
C470        C471   1.386       .  A
C471        H473   1.082       .  S
N474        N475   1.318       .  A
N474        C478   1.334       .  A
N475        C476   1.357       .  A
C476        C477   1.398       .  A
C476        H479   1.082       .  S
C477        C853   1.482       .  S
C477        C478   1.373       .  A
C478        H480   1.082       .  S
N481        N482   1.321       .  A
N481        C485   1.356       .  A
N481       Cu489   2.114   1_455  S
N482        C483   1.340       .  A
N482       Cu488   2.056       .  S
C483        C484   1.380       .  A
C483        H486   1.081       .  S
C484       C1093   1.492       .  S
C484        C485   1.396       .  A
C485        H487   1.082   1_455  S
Cu488       N491   2.060       .  S
Cu489       N499   2.115       .  S
Cu490       N492   2.050       .  S
Cu490       N498   2.050       .  S
N491        N492   1.321   1_455  A
N491        C495   1.339       .  A
N492        C493   1.344       .  A
C493        C494   1.378   1_655  A
C493        H496   1.082       .  S
C494        C495   1.380       .  A
C495        H497   1.082       .  S
N498        N499   1.323       .  A
N498        C502   1.339       .  A
N499        C500   1.356       .  A
C500        C501   1.393       .  A
C500        H503   1.082   1_655  S
C501        C978   1.482       .  S
C501        C502   1.374       .  A
C502        H504   1.082       .  S
N505        N506   1.318       .  A
N505        C509   1.358       .  A
N505       Cu513   2.101   1_554  S
N506        C507   1.332       .  A
N506       Cu512   2.043       .  S
C507        C508   1.381       .  A
C507        H510   1.082       .  S
C508        C901   1.494       .  S
C508        C509   1.399       .  A
C509        H511   1.081   1_554  S
Cu512       N515   2.041       .  S
Cu513       N523   2.106       .  S
Cu514       N516   2.075       .  S
Cu514       N522   2.071       .  S
N515        N516   1.319   1_554  A
N515        C519   1.339       .  A
N516        C517   1.347       .  A
C517        C518   1.386       .  A
C517        H520   1.082       .  S
C518        C519   1.376   1_556  A
C519        H521   1.082       .  S
N522        N523   1.321       .  A
N522        C526   1.335       .  A
N523        C524   1.356       .  A
C524        C525   1.400       .  A
C524        H527   1.078   1_556  S
C525       C1413   1.509       .  S
C525        C526   1.389       .  A
C526        H528   1.080       .  S
N529        N530   1.319       .  A
N529        C533   1.356       .  A
N529       Cu537   2.111       .  S
N530        C531   1.335       .  A
N530       Cu536   2.028       .  S
C531        C532   1.373       .  A
C531        H534   1.082       .  S
C532        C869   1.479       .  S
C532        C533   1.396       .  A
C533        H535   1.082       .  S
Cu536       N539   2.033       .  S
Cu537       N547   2.117       .  S
Cu538       N540   2.065       .  S
Cu538       N546   2.065       .  S
N539        N540   1.318       .  A
N539        C543   1.331       .  A
N540        C541   1.350       .  A
C541        C542   1.386       .  A
C541        H544   1.082       .  S
C542        C543   1.375       .  A
C543        H545   1.082       .  S
N546        N547   1.326       .  A
N546        C550   1.338       .  A
N547        C548   1.356       .  A
C548        C549   1.391       .  A
C548        H551   1.082       .  S
C549        C805   1.484       .  S
C549        C550   1.376       .  A
C550        H552   1.082       .  S
N553        N554   1.324       .  A
N553        C557   1.353       .  A
N553       Cu561   2.100       .  S
N554        C555   1.339       .  A
N554       Cu560   2.060       .  S
C555        C556   1.376       .  A
C555        H558   1.082       .  S
C556       C1029   1.476       .  S
C556        C557   1.389       .  A
C557        H559   1.082       .  S
Cu560       N563   2.061       .  S
Cu561       N571   2.099   1_556  S
Cu562       N564   2.051       .  S
Cu562       N570   2.052       .  S
N563        N564   1.319   1_556  A
N563        C567   1.343       .  A
N564        C565   1.342       .  A
C565        C566   1.380   1_554  A
C565        H568   1.082       .  S
C566        C567   1.382       .  A
C567        H569   1.082       .  S
N570        N571   1.320       .  A
N570        C574   1.337       .  A
N571        C572   1.353   1_554  A
C572        C573   1.398   1_556  A
C572        H575   1.079       .  S
C573       C1349   1.495       .  S
C573        C574   1.382       .  A
C574        H576   1.082       .  S
N577        N578   1.324       .  A
N577        C581   1.361       .  A
N577       Cu585   2.133       .  S
N578        C579   1.334       .  A
N578       Cu584   2.048       .  S
C579        C580   1.372       .  A
C579        H582   1.081       .  S
C580        C994   1.485       .  S
C580        C581   1.398       .  A
C581        H583   1.082       .  S
Cu584       N587   2.047       .  S
Cu585       N595   2.133       .  S
Cu586       N588   2.051       .  S
Cu586       N594   2.052       .  S
N587        N588   1.316       .  A
N587        C591   1.343       .  A
N588        C589   1.343       .  A
C589        C590   1.381       .  A
C589        H592   1.082       .  S
C590        C591   1.381       .  A
C591        H593   1.082       .  S
N594        N595   1.325       .  A
N594        C598   1.335       .  A
N595        C596   1.360       .  A
C596        C597   1.397       .  A
C596        H599   1.082       .  S
C597        C930   1.485       .  S
C597        C598   1.372       .  A
C598        H600   1.082       .  S
N601        N602   1.320       .  A
N601        C605   1.357   1_655  A
N601       Cu609   2.116   1_655  S
N602        C603   1.339       .  A
N602       Cu608   2.050       .  S
C603        C604   1.380       .  A
C603        H606   1.080       .  S
C604        C725   1.494       .  S
C604        C605   1.398   1_655  A
C605        H607   1.082       .  S
Cu608       N611   2.055   1_655  S
Cu609       N619   2.119       .  S
Cu610       N612   2.054       .  S
Cu610       N618   2.052       .  S
N611        N612   1.321       .  A
N611        C615   1.337   1_455  A
N612        C613   1.346       .  A
C613        C614   1.380       .  A
C613        H616   1.082       .  S
C614        C615   1.379   1_455  A
C615        H617   1.082       .  S
N618        N619   1.322       .  A
N618        C622   1.340       .  A
N619        C620   1.356       .  A
C620        C621   1.396       .  A
C620        H623   1.082   1_455  S
C621        C965   1.489       .  S
C621        C622   1.378       .  A
C622        H624   1.082       .  S
N625        N626   1.326       .  A
N625        C629   1.358   1_545  A
N625       Cu633   2.134   1_545  S
N626        C627   1.335       .  A
N626       Cu632   2.045       .  S
C627        C628   1.372       .  A
C627        H630   1.082       .  S
C628        C837   1.483       .  S
C628        C629   1.395   1_545  A
C629        H631   1.082       .  S
Cu632       N635   2.046       .  S
Cu633       N643   2.131   1_565  S
Cu634       N636   2.033       .  S
Cu634       N642   2.031       .  S
N635        N636   1.314       .  A
N635        C639   1.343       .  A
N636        C637   1.341       .  A
C637        C638   1.377       .  A
C637        H640   1.082       .  S
C638        C639   1.381       .  A
C639        H641   1.082       .  S
N642        N643   1.322       .  A
N642        C646   1.331       .  A
N643        C644   1.360   1_545  A
C644        C645   1.398       .  A
C644        H647   1.082       .  S
C645        C789   1.482       .  S
C645        C646   1.371   1_565  A
C646        H648   1.083       .  S
N649        N650   1.325       .  A
N649        C653   1.358   1_554  A
N649       Cu657   2.127   1_554  S
N650        C651   1.333       .  A
N650       Cu656   2.058       .  S
C651        C652   1.378       .  A
C651        H654   1.083       .  S
C652        C917   1.489   1_554  S
C652        C653   1.397   1_554  A
C653        H655   1.081       .  S
Cu656       N659   2.061       .  S
Cu657       N667   2.124       .  S
Cu658       N660   2.028       .  S
Cu658       N666   2.028       .  S
N659        N660   1.313       .  A
N659        C663   1.345       .  A
N660        C661   1.340   1_554  A
C661        C662   1.378   1_556  A
C661        H664   1.082       .  S
C662        C663   1.386       .  A
C663        H665   1.082       .  S
N666        N667   1.321   1_554  A
N666        C670   1.331       .  A
N667        C668   1.359       .  A
C668        C669   1.398   1_556  A
C668        H671   1.082       .  S
C669       C1045   1.481   1_554  S
C669        C670   1.371       .  A
C670        H672   1.083       .  S
C673        C674   1.424       .  A
C673        C678   1.414       .  A
C673        H680   1.082       .  S
C674        C675   1.440       .  A
C675        C682   1.513   1_455  S
C675        C676   1.399       .  A
C676        C677   1.397       .  A
C676        H681   1.085       .  S
C677        C678   1.410       .  A
C678        C679   1.504       .  S
C679        H683   1.111       .  S
C679        H684   1.109       .  S
C679        H685   1.110       .  S
C682        H686   1.090       .  S
C682        H687   1.110       .  S
C682        H688   1.111       .  S
C689        C690   1.423       .  A
C689        C694   1.414       .  A
C689        H696   1.078       .  S
C690        C691   1.441       .  A
C691        C698   1.509       .  S
C691        C692   1.398       .  A
C692        C693   1.392       .  A
C692        H697   1.085       .  S
C693        C694   1.405       .  A
C694        C695   1.503       .  S
C695        H699   1.111       .  S
C695        H700   1.110       .  S
C695        H701   1.110       .  S
C698        H702   1.099       .  S
C698        H703   1.111       .  S
C698        H704   1.104       .  S
C705        C706   1.425       .  A
C705        C710   1.400       .  A
C705        H712   1.083       .  S
C706        C707   1.449   1_655  A
C707        C714   1.512       .  S
C707        C708   1.407       .  A
C708        C709   1.392       .  A
C708        H713   1.086       .  S
C709        C710   1.401   1_455  A
C710        C711   1.507       .  S
C711        H715   1.111       .  S
C711        H716   1.110       .  S
C711        H717   1.110       .  S
C714        H718   1.110       .  S
C714        H719   1.091       .  S
C714        H720   1.112       .  S
C721        C722   1.423   1_455  A
C721        C726   1.403       .  A
C721        H728   1.079       .  S
C722        C723   1.443       .  A
C723        C730   1.508       .  S
C723        C724   1.417       .  A
C724        C725   1.397       .  A
C724        H729   1.084       .  S
C725        C726   1.411   1_655  A
C726        C727   1.512       .  S
C727        H731   1.111       .  S
C727        H732   1.105       .  S
C727        H733   1.110       .  S
C730        H734   1.099       .  S
C730        H735   1.106   1_655  S
C730        H736   1.111       .  S
C737        C738   1.424       .  A
C737        C742   1.404       .  A
C737        H744   1.083       .  S
C738        C739   1.447       .  A
C739        C746   1.512       .  S
C739        C740   1.406       .  A
C740        C741   1.392       .  A
C740        H745   1.085       .  S
C741        C742   1.403       .  A
C742        C743   1.507       .  S
C743        H747   1.111       .  S
C743        H748   1.110       .  S
C743        H749   1.110       .  S
C746        H750   1.111       .  S
C746        H751   1.091       .  S
C746        H752   1.110       .  S
C753        C754   1.395       .  A
C753        C758   1.402       .  A
C753        H760   1.084       .  S
C754        C755   1.405       .  A
C755        C762   1.505       .  S
C755        C756   1.411       .  A
C756        C757   1.429       .  A
C756        H761   1.081       .  S
C757        C758   1.448       .  A
C758        C759   1.515   1_565  S
C759        H763   1.112       .  S
C759        H764   1.098       .  S
C759        H765   1.106       .  S
C762        H766   1.110       .  S
C762        H767   1.109       .  S
C762        H768   1.111       .  S
C769        C770   1.428   1_565  A
C769        C774   1.418       .  A
C769        H776   1.078       .  S
C770        C771   1.439       .  A
C771        C778   1.511       .  S
C771        C772   1.393       .  A
C772        C773   1.393       .  A
C772        H777   1.084       .  S
C773        C774   1.408   1_545  A
C774        C775   1.504       .  S
C775        H779   1.111       .  S
C775        H780   1.109       .  S
C775        H781   1.110       .  S
C778        H782   1.102       .  S
C778        H783   1.101       .  S
C778        H784   1.111       .  S
C785        C786   1.420       .  A
C785        C790   1.397       .  A
C785        H792   1.080       .  S
C786        C787   1.438       .  A
C787        C794   1.507       .  S
C787        C788   1.417       .  A
C788        C789   1.399       .  A
C788        H793   1.083       .  S
C789        C790   1.407       .  A
C790        C791   1.511       .  S
C791        H795   1.111       .  S
C791        H796   1.107       .  S
C791        H797   1.110       .  S
C794        H798   1.099   1_565  S
C794        H799   1.107       .  S
C794        H800   1.111       .  S
C801        C802   1.420       .  A
C801        C806   1.399       .  A
C801        H808   1.077       .  S
C802        C803   1.440       .  A
C803        C810   1.509       .  S
C803        C804   1.414       .  A
C804        C805   1.398       .  A
C804        H809   1.084       .  S
C805        C806   1.407       .  A
C806        C807   1.511       .  S
C807        H811   1.111       .  S
C807        H812   1.107       .  S
C807        H813   1.110       .  S
C810        H814   1.110       .  S
C810        H815   1.097       .  S
C810        H816   1.110       .  S
C817        C818   1.425       .  A
C817        C822   1.403       .  A
C817        H824   1.078       .  S
C818        C819   1.440       .  A
C819        C826   1.511       .  S
C819        C820   1.405       .  A
C820        C821   1.394       .  A
C820        H825   1.085       .  S
C821        C822   1.399       .  A
C822        C823   1.506       .  S
C823        H827   1.111       .  S
C823        H828   1.110       .  S
C823        H829   1.110       .  S
C826        H830   1.106       .  S
C826        H831   1.100       .  S
C826        H832   1.111       .  S
C833        C834   1.420       .  A
C833        C838   1.398       .  A
C833        H840   1.075       .  S
C834        C835   1.446   1_565  A
C835        C842   1.511       .  S
C835        C836   1.414       .  A
C836        C837   1.394       .  A
C836        H841   1.084       .  S
C837        C838   1.409   1_545  A
C838        C839   1.511       .  S
C839        H843   1.111       .  S
C839        H844   1.108       .  S
C839        H845   1.110   1_565  S
C842        H846   1.105   1_545  S
C842        H847   1.107       .  S
C842        H848   1.111       .  S
C849        C850   1.421       .  A
C849        C854   1.399       .  A
C849        H856   1.082       .  S
C850        C851   1.446   1_565  A
C851        C858   1.511       .  S
C851        C852   1.413       .  A
C852        C853   1.396   1_545  A
C852        H857   1.085       .  S
C853        C854   1.407       .  A
C854        C855   1.509       .  S
C855        H859   1.111       .  S
C855        H860   1.107       .  S
C855        H861   1.110       .  S
C858        H862   1.094       .  S
C858        H863   1.111       .  S
C858        H864   1.109       .  S
C865        C866   1.427       .  A
C865        C870   1.397       .  A
C865        H872   1.082       .  S
C866        C867   1.451       .  A
C867        C874   1.511       .  S
C867        C868   1.416       .  A
C868        C869   1.393       .  A
C868        H873   1.085       .  S
C869        C870   1.401       .  A
C870        C871   1.510       .  S
C871        H875   1.111       .  S
C871        H876   1.109       .  S
C871        H877   1.110       .  S
C874        H878   1.107       .  S
C874        H879   1.102       .  S
C874        H880   1.111       .  S
C881        C882   1.396       .  A
C881        C886   1.416       .  A
C881        H888   1.084       .  S
C882        C883   1.405       .  A
C883        C890   1.511       .  S
C883        C884   1.400       .  A
C884        C885   1.425       .  A
C884        H889   1.079       .  S
C885        C886   1.442       .  A
C886        C887   1.508       .  S
C887        H891   1.111       .  S
C887        H892   1.099       .  S
C887        H893   1.106       .  S
C890        H894   1.108       .  S
C890        H895   1.110       .  S
C890        H896   1.111       .  S
C897        C898   1.424   1_556  A
C897        C902   1.417       .  A
C897        H904   1.078       .  S
C898        C899   1.438       .  A
C899        C906   1.507       .  S
C899        C900   1.395       .  A
C900        C901   1.395       .  A
C900        H905   1.086       .  S
C901        C902   1.411   1_554  A
C902        C903   1.504       .  S
C903        H907   1.111       .  S
C903        H908   1.109       .  S
C903        H909   1.110       .  S
C906        H910   1.086       .  S
C906        H911   1.111       .  S
C906        H912   1.110       .  S
C913        C914   1.421       .  A
C913        C918   1.417       .  A
C913        H920   1.083       .  S
C914        C915   1.444       .  A
C915        C922   1.517       .  S
C915        C916   1.396       .  A
C916        C917   1.395       .  A
C916        H921   1.086       .  S
C917        C918   1.406       .  A
C918        C919   1.503       .  S
C919        H923   1.111       .  S
C919        H924   1.110       .  S
C919        H925   1.110   1_556  S
C922        H926   1.091       .  S
C922        H927   1.110   1_556  S
C922        H928   1.112       .  S
C929        C930   1.394       .  A
C929        C934   1.403       .  A
C929        H936   1.086       .  S
C930        C931   1.405       .  A
C931        C938   1.504       .  S
C931        C932   1.413       .  A
C932        C933   1.427       .  A
C932        H937   1.078       .  S
C933        C934   1.439       .  A
C934        C935   1.502       .  S
C935        H939   1.110       .  S
C935        H940   1.081   1_455  S
C935        H941   1.111       .  S
C938        H942   1.110       .  S
C938        H943   1.110       .  S
C938        H944   1.111       .  S
C945        C946   1.397       .  A
C945        C950   1.400       .  A
C945        H952   1.086       .  S
C946        C947   1.406       .  A
C947        C954   1.503       .  S
C947        C948   1.418       .  A
C948        C949   1.421       .  A
C948        H953   1.079       .  S
C949        C950   1.439       .  A
C950        C951   1.513   1_655  S
C951        H955   1.111       .  S
C951        H956   1.097       .  S
C951        H957   1.109       .  S
C954        H958   1.110       .  S
C954        H959   1.110       .  S
C954        H960   1.111       .  S
C961        C962   1.422   1_455  A
C961        C966   1.410       .  A
C961        H968   1.076       .  S
C962        C963   1.438       .  A
C963        C970   1.512       .  S
C963        C964   1.406       .  A
C964        C965   1.399   1_655  A
C964        H969   1.085       .  S
C965        C966   1.405       .  A
C966        C967   1.505       .  S
C967        H971   1.111       .  S
C967        H972   1.110       .  S
C967        H973   1.110       .  S
C970        H974   1.111       .  S
C970        H975   1.100       .  S
C970        H976   1.109       .  S
C977        C978   1.392       .  A
C977        C982   1.414       .  A
C977        H984   1.085       .  S
C978        C979   1.402   1_655  A
C979        C986   1.507       .  S
C979        C980   1.404       .  A
C980        C981   1.426   1_455  A
C980        H985   1.082       .  S
C981        C982   1.453       .  A
C982        C983   1.513       .  S
C983        H987   1.111       .  S
C983        H988   1.107       .  S
C983        H989   1.101       .  S
C986        H990   1.110       .  S
C986        H991   1.110       .  S
C986        H992   1.111       .  S
C993        C994   1.396       .  A
C993        C998   1.408       .  A
C993       H1000   1.085       .  S
C994        C995   1.404       .  A
C995       C1002   1.505       .  S
C995        C996   1.412       .  A
C996        C997   1.424       .  A
C996       H1001   1.074       .  S
C997        C998   1.442       .  A
C998        C999   1.511       .  S
C999       H1003   1.108       .  S
C999       H1004   1.111       .  S
C999       H1005   1.106       .  S
C1002      H1006   1.110       .  S
C1002      H1007   1.110       .  S
C1002      H1008   1.111       .  S
C1009      C1010   1.431       .  A
C1009      C1014   1.410       .  A
C1009      H1016   1.078       .  S
C1010      C1011   1.439       .  A
C1011      C1018   1.514   1_556  S
C1011      C1012   1.399       .  A
C1012      C1013   1.400       .  A
C1012      H1017   1.085       .  S
C1013      C1014   1.400       .  A
C1014      C1015   1.505       .  S
C1015      H1019   1.111       .  S
C1015      H1020   1.110       .  S
C1015      H1021   1.110       .  S
C1018      H1022   1.109       .  S
C1018      H1023   1.095       .  S
C1018      H1024   1.112       .  S
C1025      C1026   1.426       .  A
C1025      C1030   1.405       .  A
C1025      H1032   1.077       .  S
C1026      C1027   1.439   1_556  A
C1027      C1034   1.510       .  S
C1027      C1028   1.403       .  A
C1028      C1029   1.395   1_554  A
C1028      H1033   1.085       .  S
C1029      C1030   1.401       .  A
C1030      C1031   1.506       .  S
C1031      H1035   1.111       .  S
C1031      H1036   1.110       .  S
C1031      H1037   1.110       .  S
C1034      H1038   1.111       .  S
C1034      H1039   1.094       .  S
C1034      H1040   1.110       .  S
C1041      C1042   1.423       .  A
C1041      C1046   1.395       .  A
C1041      H1048   1.080       .  S
C1042      C1043   1.439   1_556  A
C1043      C1050   1.503       .  S
C1043      C1044   1.414       .  A
C1044      C1045   1.398   1_554  A
C1044      H1049   1.084       .  S
C1045      C1046   1.407       .  A
C1046      C1047   1.513       .  S
C1047      H1051   1.111       .  S
C1047      H1052   1.110       .  S
C1047      H1053   1.106       .  S
C1050      H1054   1.093       .  S
C1050      H1055   1.110       .  S
C1050      H1056   1.110   1_554  S
C1057      C1058   1.422       .  A
C1057      C1062   1.415       .  A
C1057      H1064   1.078       .  S
C1058      C1059   1.439       .  A
C1059      C1066   1.513       .  S
C1059      C1060   1.396       .  A
C1060      C1061   1.396       .  A
C1060      H1065   1.084       .  S
C1061      C1062   1.412       .  A
C1062      C1063   1.503       .  S
C1063      H1067   1.111       .  S
C1063      H1068   1.109       .  S
C1063      H1069   1.110       .  S
C1066      H1070   1.100   1_455  S
C1066      H1071   1.111       .  S
C1066      H1072   1.103       .  S
C1073      C1074   1.422       .  A
C1073      C1078   1.418       .  A
C1073      H1080   1.082       .  S
C1074      C1075   1.445       .  A
C1075      C1082   1.516   1_655  S
C1075      C1076   1.397       .  A
C1076      C1077   1.394       .  A
C1076      H1081   1.086       .  S
C1077      C1078   1.410       .  A
C1078      C1079   1.503       .  S
C1079      H1083   1.111       .  S
C1079      H1084   1.109       .  S
C1079      H1085   1.110       .  S
C1082      H1086   1.089       .  S
C1082      H1087   1.111       .  S
C1082      H1088   1.112   1_455  S
C1089      C1090   1.425       .  A
C1089      C1094   1.400       .  A
C1089      H1096   1.079       .  S
C1090      C1091   1.440   1_655  A
C1091      C1098   1.506       .  S
C1091      C1092   1.419       .  A
C1092      C1093   1.399       .  A
C1092      H1097   1.084       .  S
C1093      C1094   1.408   1_455  A
C1094      C1095   1.512       .  S
C1095      H1099   1.111       .  S
C1095      H1100   1.106       .  S
C1095      H1101   1.110       .  S
C1098      H1102   1.100       .  S
C1098      H1103   1.106   1_455  S
C1098      H1104   1.111       .  S
C1105      C1106   1.422   1_455  A
C1105      C1110   1.390       .  A
C1105      H1112   1.082       .  S
C1106      C1107   1.446       .  A
C1107      C1114   1.507       .  S
C1107      C1108   1.418       .  A
C1108      C1109   1.400   1_655  A
C1108      H1113   1.085       .  S
C1109      C1110   1.406       .  A
C1110      C1111   1.512       .  S
C1111      H1115   1.111       .  S
C1111      H1116   1.106       .  S
C1111      H1117   1.110       .  S
C1114      H1118   1.110       .  S
C1114      H1119   1.096       .  S
C1114      H1120   1.111       .  S
C1121      C1122   1.421       .  A
C1121      C1126   1.399       .  A
C1121      H1128   1.083       .  S
C1122      C1123   1.456       .  A
C1123      C1130   1.517       .  S
C1123      C1124   1.411       .  A
C1124      C1125   1.388       .  A
C1124      H1129   1.085       .  S
C1125      C1126   1.402       .  A
C1126      C1127   1.509       .  S
C1127      H1131   1.111       .  S
C1127      H1132   1.110       .  S
C1127      H1133   1.108       .  S
C1130      H1134   1.101       .  S
C1130      H1135   1.103       .  S
C1130      H1136   1.111       .  S
C1137      C1138   1.428       .  A
C1137      C1142   1.410       .  A
C1137      H1144   1.075       .  S
C1138      C1139   1.440       .  A
C1139      C1146   1.509       .  S
C1139      C1140   1.404       .  A
C1140      C1141   1.399       .  A
C1140      H1145   1.085       .  S
C1141      C1142   1.409       .  A
C1142      C1143   1.508       .  S
C1143      H1147   1.111       .  S
C1143      H1148   1.110       .  S
C1143      H1149   1.108       .  S
C1146      H1150   1.111   1_565  S
C1146      H1151   1.090   1_565  S
C1146      H1152   1.111       .  S
C1153      C1154   1.420       .  A
C1153      C1158   1.412       .  A
C1153      H1160   1.074       .  S
C1154      C1155   1.435   1_565  A
C1155      C1162   1.516       .  S
C1155      C1156   1.405       .  A
C1156      C1157   1.409       .  A
C1156      H1161   1.074       .  S
C1157      C1158   1.418   1_545  A
C1158      C1159   1.505       .  S
C1159      H1163   1.111       .  S
C1159      H1164   1.110       .  S
C1159      H1165   1.109       .  S
C1162      H1166   1.105       .  S
C1162      H1167   1.105       .  S
C1162      H1168   1.111       .  S
C1169      C1170   1.425       .  A
C1169      C1174   1.401       .  A
C1169      H1176   1.084       .  S
C1170      C1171   1.452   1_565  A
C1171      C1178   1.512       .  S
C1171      C1172   1.410       .  A
C1172      C1173   1.390   1_545  A
C1172      H1177   1.085       .  S
C1173      C1174   1.402       .  A
C1174      C1175   1.507       .  S
C1175      H1179   1.111       .  S
C1175      H1180   1.110       .  S
C1175      H1181   1.110       .  S
C1178      H1182   1.106       .  S
C1178      H1183   1.105       .  S
C1178      H1184   1.111       .  S
C1185      C1186   1.423       .  A
C1185      C1190   1.398       .  A
C1185      H1192   1.080       .  S
C1186      C1187   1.442       .  A
C1187      C1194   1.507       .  S
C1187      C1188   1.415       .  A
C1188      C1189   1.395       .  A
C1188      H1193   1.084       .  S
C1189      C1190   1.406       .  A
C1190      C1191   1.509       .  S
C1191      H1195   1.111       .  S
C1191      H1196   1.109       .  S
C1191      H1197   1.111       .  S
C1194      H1198   1.106       .  S
C1194      H1199   1.099       .  S
C1194      H1200   1.111       .  S
C1201      C1202   1.424       .  A
C1201      C1206   1.398       .  A
C1201      H1208   1.083       .  S
C1202      C1203   1.447       .  A
C1203      C1210   1.511       .  S
C1203      C1204   1.409       .  A
C1204      C1205   1.392       .  A
C1204      H1209   1.085       .  S
C1205      C1206   1.403       .  A
C1206      C1207   1.508       .  S
C1207      H1211   1.111       .  S
C1207      H1212   1.110       .  S
C1207      H1213   1.109       .  S
C1210      H1214   1.093       .  S
C1210      H1215   1.110       .  S
C1210      H1216   1.111       .  S
C1217      C1218   1.424       .  A
C1217      C1222   1.414       .  A
C1217      H1224   1.082       .  S
C1218      C1219   1.440       .  A
C1219      C1226   1.515       .  S
C1219      C1220   1.399       .  A
C1220      C1221   1.399   1_545  A
C1220      H1225   1.085       .  S
C1221      C1222   1.409   1_565  A
C1222      C1223   1.504   1_545  S
C1223      H1227   1.111       .  S
C1223      H1228   1.110       .  S
C1223      H1229   1.109   1_565  S
C1226      H1230   1.090       .  S
C1226      H1231   1.111       .  S
C1226      H1232   1.110   1_545  S
C1233      C1234   1.424   1_545  A
C1233      C1238   1.412       .  A
C1233      H1240   1.078       .  S
C1234      C1235   1.440       .  A
C1235      C1242   1.509       .  S
C1235      C1236   1.399       .  A
C1236      C1237   1.393       .  A
C1236      H1241   1.085       .  S
C1237      C1238   1.403   1_565  A
C1238      C1239   1.504       .  S
C1239      H1243   1.111       .  S
C1239      H1244   1.110       .  S
C1239      H1245   1.110       .  S
C1242      H1246   1.100       .  S
C1242      H1247   1.104       .  S
C1242      H1248   1.111       .  S
C1249      C1250   1.426       .  A
C1249      C1254   1.411       .  A
C1249      H1256   1.082       .  S
C1250      C1251   1.443       .  A
C1251      C1258   1.514   1_455  S
C1251      C1252   1.400       .  A
C1252      C1253   1.397       .  A
C1252      H1257   1.086       .  S
C1253      C1254   1.402       .  A
C1254      C1255   1.504       .  S
C1255      H1259   1.111       .  S
C1255      H1260   1.110       .  S
C1255      H1261   1.110       .  S
C1258      H1262   1.090       .  S
C1258      H1263   1.111       .  S
C1258      H1264   1.111       .  S
C1265      C1266   1.419       .  A
C1265      C1270   1.400       .  A
C1265      H1272   1.077       .  S
C1266      C1267   1.440       .  A
C1267      C1274   1.512       .  S
C1267      C1268   1.407       .  A
C1268      C1269   1.394       .  A
C1268      H1273   1.085       .  S
C1269      C1270   1.403       .  A
C1270      C1271   1.507       .  S
C1271      H1275   1.111       .  S
C1271      H1276   1.110       .  S
C1271      H1277   1.110       .  S
C1274      H1278   1.111       .  S
C1274      H1279   1.098       .  S
C1274      H1280   1.110       .  S
C1281      C1282   1.420       .  A
C1281      C1286   1.400       .  A
C1281      H1288   1.075       .  S
C1282      C1283   1.443   1_655  A
C1283      C1290   1.512       .  S
C1283      C1284   1.410       .  A
C1284      C1285   1.395       .  A
C1284      H1289   1.085       .  S
C1285      C1286   1.403   1_455  A
C1286      C1287   1.508       .  S
C1287      H1291   1.111       .  S
C1287      H1292   1.110       .  S
C1287      H1293   1.110       .  S
C1290      H1294   1.097       .  S
C1290      H1295   1.110       .  S
C1290      H1296   1.111       .  S
C1297      C1298   1.393       .  A
C1297      C1302   1.409       .  A
C1297      H1304   1.084       .  S
C1298      C1299   1.410   1_655  A
C1299      C1306   1.510       .  S
C1299      C1300   1.402       .  A
C1300      C1301   1.419   1_455  A
C1300      H1305   1.080       .  S
C1301      C1302   1.440       .  A
C1302      C1303   1.504       .  S
C1303      H1307   1.111       .  S
C1303      H1308   1.105   1_655  S
C1303      H1309   1.100       .  S
C1306      H1310   1.110       .  S
C1306      H1311   1.106       .  S
C1306      H1312   1.111       .  S
C1313      C1314   1.415       .  A
C1313      C1318   1.397       .  A
C1313      H1320   1.078       .  S
C1314      C1315   1.445       .  A
C1315      C1322   1.516       .  S
C1315      C1316   1.411       .  A
C1316      C1317   1.398       .  A
C1316      H1321   1.084       .  S
C1317      C1318   1.410       .  A
C1318      C1319   1.510       .  S
C1319      H1323   1.111       .  S
C1319      H1324   1.110       .  S
C1319      H1325   1.106       .  S
C1322      H1326   1.104       .  S
C1322      H1327   1.102       .  S
C1322      H1328   1.111       .  S
C1329      C1330   1.423       .  A
C1329      C1334   1.403       .  A
C1329      H1336   1.076       .  S
C1330      C1331   1.451       .  A
C1331      C1338   1.516       .  S
C1331      C1332   1.409       .  A
C1332      C1333   1.390       .  A
C1332      H1337   1.085       .  S
C1333      C1334   1.400       .  A
C1334      C1335   1.507       .  S
C1335      H1339   1.111       .  S
C1335      H1340   1.110       .  S
C1335      H1341   1.110       .  S
C1338      H1342   1.102       .  S
C1338      H1343   1.104       .  S
C1338      H1344   1.111       .  S
C1345      C1346   1.423   1_556  A
C1345      C1350   1.411       .  A
C1345      H1352   1.076       .  S
C1346      C1347   1.436       .  A
C1347      C1354   1.512       .  S
C1347      C1348   1.400       .  A
C1348      C1349   1.399       .  A
C1348      H1353   1.085       .  S
C1349      C1350   1.411   1_554  A
C1350      C1351   1.506       .  S
C1351      H1355   1.111       .  S
C1351      H1356   1.108       .  S
C1351      H1357   1.110       .  S
C1354      H1358   1.096       .  S
C1354      H1359   1.111       .  S
C1354      H1360   1.111       .  S
C1361      C1362   1.428   1_554  A
C1361      C1366   1.402       .  A
C1361      H1368   1.072       .  S
C1362      C1363   1.439       .  A
C1363      C1370   1.510       .  S
C1363      C1364   1.405       .  A
C1364      C1365   1.396   1_556  A
C1364      H1369   1.085       .  S
C1365      C1366   1.398       .  A
C1366      C1367   1.508       .  S
C1367      H1371   1.111       .  S
C1367      H1372   1.110       .  S
C1367      H1373   1.110       .  S
C1370      H1374   1.101       .  S
C1370      H1375   1.110       .  S
C1370      H1376   1.111       .  S
C1377      C1378   1.394       .  A
C1377      C1382   1.402       .  A
C1377      H1384   1.087       .  S
C1378      C1379   1.404       .  A
C1379      C1386   1.504       .  S
C1379      C1380   1.417       .  A
C1380      C1381   1.429       .  A
C1380      H1385   1.078       .  S
C1381      C1382   1.447       .  A
C1382      C1383   1.511   1_554  S
C1383      H1387   1.112       .  S
C1383      H1388   1.087       .  S
C1383      H1389   1.109       .  S
C1386      H1390   1.110       .  S
C1386      H1391   1.110       .  S
C1386      H1392   1.111       .  S
C1393      C1394   1.424       .  A
C1393      C1398   1.402       .  A
C1393      H1400   1.076       .  S
C1394      C1395   1.444       .  A
C1395      C1402   1.507       .  S
C1395      C1396   1.414       .  A
C1396      C1397   1.394       .  A
C1396      H1401   1.084       .  S
C1397      C1398   1.403       .  A
C1398      C1399   1.508       .  S
C1399      H1403   1.111       .  S
C1399      H1404   1.109       .  S
C1399      H1405   1.110       .  S
C1402      H1406   1.092       .  S
C1402      H1407   1.104       .  S
C1402      H1408   1.111       .  S
C1409      C1410   1.426   1_554  A
C1409      C1414   1.418       .  A
C1409      H1416   1.080       .  S
C1410      C1411   1.443       .  A
C1411      C1418   1.514       .  S
C1411      C1412   1.397       .  A
C1412      C1413   1.397       .  A
C1412      H1417   1.082       .  S
C1413      C1414   1.413   1_556  A
C1414      C1415   1.504       .  S
C1415      H1419   1.111       .  S
C1415      H1420   1.110   1_554  S
C1415      H1421   1.108       .  S
C1418      H1422   1.086       .  S
C1418      H1423   1.111       .  S
C1418      H1424   1.111       .  S
C1425      C1426   1.398   1_556  A
C1425      C1430   1.416       .  A
C1425      H1432   1.084       .  S
C1426      C1427   1.405       .  A
C1427      C1434   1.508       .  S
C1427      C1428   1.402       .  A
C1428      C1429   1.423       .  A
C1428      H1433   1.079       .  S
C1429      C1430   1.433   1_554  A
C1430      C1431   1.501       .  S
C1431      H1435   1.111       .  S
C1431      H1436   1.099       .  S
C1431      H1437   1.107   1_556  S
C1434      H1438   1.108       .  S
C1434      H1439   1.111       .  S
C1434      H1440   1.110       .  S
