geometry optimzed in LAMMPS
_audit_creation_date              2020-11-30 
_audit_creation_method            'lammps2cif' 
_symmetry_space_group_name_H-M    'P1' 
_symmetry_Int_Tables_number       1 
_symmetry_cell_setting            triclinic 
loop_ 
_symmetry_equiv_pos_as_xyz 
  x,y,z 
_cell_length_a                    58.54354095950485 
_cell_length_b                    51.633489820115514 
_cell_length_c                    49.3154869041832 
_cell_angle_alpha                 89.944370627759 
_cell_angle_beta                  90.18560459809547 
_cell_angle_gamma                 90.45742481474397 
loop_ 
_atom_site_label 
_atom_site_type_symbol 
_atom_site_fract_x 
_atom_site_fract_y 
_atom_site_fract_z 
_atom_site_charge 
N1          N  0.36356563  0.93220797  0.54431831    -0.27520
N2          N  0.38534104  0.93510255  0.53798643    -0.35380
C3          C  0.38702316  0.94762780  0.51427010     0.00820
C4          C  0.36530581  0.95345296  0.50517721     0.06840
C5          C  0.35075391  0.94334798  0.52480229    -0.06260
H6          H  0.40299652  0.95210933  0.50427519     0.07510
H7          H  0.33229339  0.94384414  0.52483414     0.08710
Cu8        Cu  0.41227156  0.92333451  0.56193034     0.44170
Cu9        Cu  0.35329504  0.91118246  0.57826671     0.41990
Cu10       Cu  0.40054234  0.89153776  0.62397293     0.43880
N11         N  0.43744955  0.91425749  0.58960444    -0.34910
N12         N  0.43330334  0.90263590  0.61296048    -0.29160
C13         C  0.45318024  0.89941648  0.62634825    -0.05260
C14         C  0.47051037  0.90973351  0.61054266     0.06950
C15         C  0.45994736  0.91894973  0.58745494     0.00750
H16         H  0.45488934  0.89023328  0.64596492     0.08400
H17         H  0.46803991  0.92827824  0.57029888     0.07480
N18         N  0.36710292  0.87835026  0.62666363    -0.36360
N19         N  0.35017578  0.88497288  0.61022499    -0.28540
C20         C  0.33186966  0.86989983  0.61566390    -0.03780
C21         C  0.33759593  0.85325581  0.63652836     0.04830
C22         C  0.35997371  0.85909275  0.64297529     0.02930
H23         H  0.31607585  0.86999088  0.60422617     0.08030
H24         H  0.37076203  0.84891467  0.65721713     0.06870
N25         N  0.67306050  0.92891730  0.54410704    -0.27520
N26         N  0.65344768  0.94138250  0.54288864    -0.35380
C27         C  0.65233324  0.95444700  0.51937279     0.00820
C28         C  0.67220065  0.95004987  0.50514294     0.06840
C29         C  0.68496933  0.93369689  0.52129751    -0.06260
H30         H  0.63751576  0.96490204  0.51231934     0.07510
H31         H  0.70098596  0.92467670  0.51613372     0.08710
Cu32       Cu  0.62743636  0.93668617  0.57082440     0.44170
Cu33       Cu  0.68096277  0.90342602  0.57517433     0.41990
Cu34       Cu  0.63732319  0.89440086  0.62753969     0.43880
N35         N  0.60210192  0.92528112  0.59756386    -0.34910
N36         N  0.60560478  0.90986775  0.61855414    -0.29160
C37         C  0.58537275  0.90412199  0.63010498    -0.05260
C38         C  0.56837311  0.91649642  0.61556135     0.06950
C39         C  0.57961861  0.92973274  0.59513966     0.00750
H40         H  0.58311735  0.89099079  0.64700857     0.08400
H41         H  0.57189806  0.94073356  0.57888399     0.07480
N42         N  0.66843210  0.87547274  0.62703019    -0.36360
N43         N  0.68373861  0.87793133  0.60750360    -0.28540
C44         C  0.70024807  0.86034037  0.61132109    -0.03780
C45         C  0.69519530  0.84622109  0.63442392     0.04830
C46         C  0.67500400  0.85651292  0.64397431     0.02930
H47         H  0.71439388  0.85734542  0.59765091     0.08030
H48         H  0.66522947  0.84989638  0.66125772     0.06870
N49         N  0.67324505  0.00760803  0.35651437    -0.27520
N50         N  0.65177758  0.00049513  0.36024836    -0.35380
C51         C  0.65004672  0.98735870  0.38357759     0.00820
C52         C  0.67151425  0.98545147  0.39512178     0.06840
C53         C  0.68592079  0.99849062  0.37727052    -0.06260
H54         H  0.63409736  0.98036985  0.39197679     0.07510
H55         H  0.70409154  0.00176623  0.37950857     0.08710
Cu56       Cu  0.62516170  0.00971045  0.33475273     0.44170
Cu57       Cu  0.68259792  0.03262687  0.32529585     0.41990
Cu58       Cu  0.63434991  0.05443784  0.28162763     0.43880
N59         N  0.59909458  0.02299867  0.31052690    -0.34910
N60         N  0.60208289  0.04037286  0.29119495    -0.29160
C61         C  0.58149112  0.04741252  0.28151069    -0.05260
C62         C  0.56486010  0.03355822  0.29545054     0.06950
C63         C  0.57671203  0.01814964  0.31348085     0.00750
H64         H  0.57880070  0.06217801  0.26628135     0.08400
H65         H  0.56952945  0.00520238  0.32852555     0.07480
N66         N  0.66756531  0.06865446  0.27992754    -0.36360
N67         N  0.68461214  0.06160921  0.29597271    -0.28540
C68         C  0.70249069  0.07765607  0.29175695    -0.03780
C69         C  0.69645040  0.09550454  0.27208181     0.04830
C70         C  0.67431293  0.08898445  0.26486842     0.02930
H71         H  0.71829670  0.07717588  0.30315842     0.08030
H72         H  0.66343138  0.09917219  0.25073338     0.06870
N73         N  0.35979199  0.01215921  0.35705259    -0.27520
N74         N  0.37939360  0.99961942  0.35789646    -0.35380
C75         C  0.38109214  0.98711773  0.38167845     0.00820
C76         C  0.36168108  0.99197065  0.39658047     0.06840
C77         C  0.34848429  0.00794270  0.38044226    -0.06260
H78         H  0.39607345  0.97678583  0.38843881     0.07510
H79         H  0.33261363  0.01710028  0.38595619     0.08710
Cu80       Cu  0.40528277  0.00399954  0.32977536     0.44170
Cu81       Cu  0.35125101  0.03724314  0.32568165     0.41990
Cu82       Cu  0.39806490  0.05261689  0.27910646     0.43880
N83         N  0.43188582  0.01795969  0.30630238    -0.34910
N84         N  0.42942946  0.03655759  0.28814396    -0.29160
C85         C  0.45019175  0.04425443  0.27952751    -0.05260
C86         C  0.46646278  0.02971112  0.29293172     0.06950
C87         C  0.45423170  0.01314193  0.30960974     0.00750
H88         H  0.45325393  0.06020627  0.26573684     0.08400
H89         H  0.46113446  0.99974505  0.32433220     0.07480
N90         N  0.36577168  0.06842251  0.27659156    -0.36360
N91         N  0.34885442  0.06317354  0.29352070    -0.28540
C92         C  0.33122473  0.07884828  0.28780820    -0.03780
C93         C  0.33740760  0.09459666  0.26629551     0.04830
C94         C  0.35934568  0.08745155  0.25967509     0.02930
H95         H  0.31557431  0.07969005  0.29936147     0.08030
H96         H  0.37033682  0.09650035  0.24476885     0.06870
N97         N  0.36413632  0.43199754  0.35621544    -0.27520
N98         N  0.38132431  0.44844384  0.35307008    -0.35380
C99         C  0.38272476  0.46385994  0.37487295     0.00820
C100        C  0.36641249  0.45608693  0.39352258     0.06840
C101        C  0.35470263  0.43594075  0.38078671    -0.06260
H102        H  0.39606357  0.47818715  0.37794266     0.07510
H103        H  0.34134843  0.42393612  0.38940198     0.08710
Cu104      Cu  0.40684840  0.44403867  0.32452964     0.44170
Cu105      Cu  0.35603431  0.40416295  0.32705840     0.41990
Cu106      Cu  0.39935945  0.39667500  0.27353126     0.43880
N107        N  0.43379413  0.42978429  0.30199667    -0.34910
N108        N  0.43102925  0.41244455  0.28259441    -0.29160
C109        C  0.45164843  0.40549335  0.27317384    -0.05260
C110        C  0.46824415  0.41893100  0.28764711     0.06950
C111        C  0.45624719  0.43410635  0.30576389     0.00750
H112        H  0.45436051  0.39108574  0.25762942     0.08400
H113        H  0.46336606  0.44666557  0.32123159     0.07480
N114        N  0.36764208  0.37876501  0.27339766    -0.36360
N115        N  0.35226159  0.38067483  0.29291715    -0.28540
C116        C  0.33501629  0.36398806  0.28768335    -0.03780
C117        C  0.33980734  0.35121410  0.26375076     0.04830
C118        C  0.36058235  0.36096927  0.25531258     0.02930
H119        H  0.32069949  0.36041803  0.30101884     0.08030
H120        H  0.37056825  0.35436202  0.23828732     0.06870
N121        N  0.67383478  0.42980515  0.36112044    -0.27520
N122        N  0.65317238  0.43958738  0.36377111    -0.35380
C123        C  0.65200820  0.45241689  0.38735662     0.00820
C124        C  0.67291925  0.45063329  0.40019230     0.06840
C125        C  0.68641519  0.43610661  0.38310581    -0.06260
H126        H  0.63663777  0.46094022  0.39541101     0.07510
H127        H  0.70351113  0.42926822  0.38711456     0.08710
Cu128      Cu  0.62631754  0.43177249  0.33767871     0.44170
Cu129      Cu  0.68224499  0.40533421  0.32952980     0.41990
Cu130      Cu  0.63522601  0.38764658  0.28281103     0.43880
N131        N  0.60048411  0.41960653  0.31192762    -0.34910
N132        N  0.60353050  0.40357303  0.29141341    -0.29160
C133        C  0.58320692  0.39905868  0.27930057    -0.05260
C134        C  0.56665894  0.41290970  0.29302392     0.06950
C135        C  0.57826790  0.42561893  0.31357519     0.00750
H136        H  0.58061970  0.38638196  0.26209361     0.08400
H137        H  0.57101206  0.43802732  0.32891375     0.07480
N138        N  0.66782357  0.37186759  0.28195844    -0.36360
N139        N  0.68462429  0.37817961  0.29880830    -0.28540
C140        C  0.70256277  0.36271253  0.29416725    -0.03780
C141        C  0.69677463  0.34589970  0.27347015     0.04830
C142        C  0.67472062  0.35225265  0.26612166     0.02930
H143        H  0.71832326  0.36305735  0.30567632     0.08030
H144        H  0.66413153  0.34259671  0.25115621     0.06870
N145        N  0.36158603  0.51607171  0.54255874    -0.27520
N146        N  0.37801257  0.49919047  0.54695666    -0.35380
C147        C  0.37976827  0.48353848  0.52541638     0.00820
C148        C  0.36466832  0.49168738  0.50554725     0.06840
C149        C  0.35316153  0.51226827  0.51735333    -0.06260
H150        H  0.39265045  0.46877331  0.52344922     0.07510
H151        H  0.34072990  0.52466835  0.50773425     0.08710
Cu152      Cu  0.40287837  0.50381556  0.57645007     0.44170
Cu153      Cu  0.35336460  0.54432286  0.57107550     0.41990
Cu154      Cu  0.39696594  0.55468964  0.62423867     0.43880
N155        N  0.43000222  0.51822262  0.59904509    -0.34910
N156        N  0.42771598  0.53633747  0.61766977    -0.29160
C157        C  0.44846811  0.54274503  0.62750273    -0.05260
C158        C  0.46473644  0.52843001  0.61383700     0.06950
C159        C  0.45230562  0.51313361  0.59592312     0.00750
H160        H  0.45151187  0.55757004  0.64259220     0.08400
H161        H  0.45905610  0.50010983  0.58082033     0.07480
N162        N  0.36594586  0.57357945  0.62246735    -0.36360
N163        N  0.34999150  0.56962354  0.60381388    -0.28540
C164        C  0.33246782  0.58568523  0.60866100    -0.03780
C165        C  0.33786864  0.60079789  0.63105804     0.04830
C166        C  0.35920548  0.59252180  0.63921833     0.02930
H167        H  0.31721738  0.58681697  0.59628984     0.08030
H168        H  0.36944073  0.60027078  0.65566245     0.06870
N169        N  0.67188818  0.51247970  0.54608529    -0.27520
N170        N  0.65026035  0.50816387  0.53965671    -0.35380
C171        C  0.64918306  0.49514256  0.51621445     0.00820
C172        C  0.67114936  0.49079514  0.50734873     0.06840
C173        C  0.68523418  0.50210074  0.52674398    -0.06260
H174        H  0.63347428  0.48944953  0.50616432     0.07510
H175        H  0.70369750  0.50300247  0.52665505     0.08710
Cu176      Cu  0.62265617  0.51968990  0.56235226     0.44170
Cu177      Cu  0.68127706  0.53399746  0.57996211     0.41990
Cu178      Cu  0.63257788  0.55557565  0.62208261     0.43880
N179        N  0.59669780  0.52993926  0.58824330    -0.34910
N180        N  0.60022236  0.54289619  0.61095281    -0.29160
C181        C  0.58006896  0.54626712  0.62351904    -0.05260
C182        C  0.56314561  0.53479490  0.60779391     0.06950
C183        C  0.57431355  0.52470144  0.58560028     0.00750
H184        H  0.57788936  0.55635919  0.64253559     0.08400
H185        H  0.56671064  0.51433066  0.56874309     0.07480
N186        N  0.66592162  0.56898248  0.62564279    -0.36360
N187        N  0.68347941  0.56106535  0.61104661    -0.28540
C188        C  0.70188099  0.57571522  0.61725426    -0.03780
C189        C  0.69549851  0.59383599  0.63638651     0.04830
C190        C  0.67266364  0.58892012  0.64126643     0.02930
H191        H  0.71834611  0.57415844  0.60753080     0.08030
H192        H  0.66145470  0.59990257  0.65423022     0.06870
N193        N  0.86160847  0.92742675  0.86258747    -0.27520
N194        N  0.88341058  0.93192369  0.86775871    -0.35380
C195        C  0.88540827  0.94476100  0.89122679     0.00820
C196        C  0.86380157  0.94913314  0.90133541     0.06840
C197        C  0.84901068  0.93782506  0.88261077    -0.06260
H198        H  0.90151299  0.95048660  0.90032277     0.07510
H199        H  0.83056429  0.93705813  0.88350695     0.08710
Cu200      Cu  0.90964888  0.92175861  0.84240022     0.44170
Cu201      Cu  0.85151984  0.90564186  0.82917810     0.41990
Cu202      Cu  0.89717390  0.89301435  0.77854016     0.43880
N203        N  0.93438122  0.91339515  0.81430182    -0.34910
N204        N  0.93011501  0.90303917  0.79032289    -0.29160
C205        C  0.95009407  0.89886334  0.77759361    -0.05260
C206        C  0.96759487  0.90712546  0.79456635     0.06950
C207        C  0.95699006  0.91629481  0.81752561     0.00750
H208        H  0.95178115  0.88975070  0.75796933     0.08400
H209        H  0.96515561  0.92390965  0.83557901     0.07480
N210        N  0.86456171  0.87703261  0.77768792    -0.36360
N211        N  0.84878728  0.88032493  0.79652898    -0.28540
C212        C  0.83184221  0.86300854  0.79246012    -0.03780
C213        C  0.83705880  0.84828450  0.76990125     0.04830
C214        C  0.85776593  0.85799716  0.76087861     0.02930
H215        H  0.81740278  0.86038892  0.80584141     0.08030
H216        H  0.86790204  0.85065494  0.74432231     0.06870
N217        N  0.17227190  0.93327808  0.85879710    -0.27520
N218        N  0.15186184  0.94384810  0.86114537    -0.35380
C219        C  0.15092292  0.95697664  0.88461005     0.00820
C220        C  0.17168216  0.95460775  0.89768991     0.06840
C221        C  0.18483278  0.93934531  0.88089038    -0.06260
H222        H  0.13577435  0.96620669  0.89238624     0.07510
H223        H  0.20174748  0.93205185  0.88508525     0.08710
Cu224      Cu  0.12478912  0.93698613  0.83484907     0.44170
Cu225      Cu  0.18086045  0.90860810  0.82715466     0.41990
Cu226      Cu  0.13426006  0.89319541  0.78011563     0.43880
N227        N  0.09897360  0.92408014  0.80924128    -0.34910
N228        N  0.10247734  0.90799350  0.78887884    -0.29160
C229        C  0.08225287  0.90118745  0.77785534    -0.05260
C230        C  0.06527112  0.91367575  0.79200299     0.06950
C231        C  0.07641099  0.92794189  0.81179471     0.00750
H232        H  0.08001118  0.88705703  0.76186720     0.08400
H233        H  0.06861889  0.93912550  0.82777709     0.07480
N234        N  0.16627506  0.87676146  0.77858075    -0.36360
N235        N  0.18325810  0.88221140  0.79545196    -0.28540
C236        C  0.20084138  0.86641300  0.79003083    -0.03780
C237        C  0.19448470  0.85021570  0.76890109     0.04830
C238        C  0.17251962  0.85735928  0.76215401     0.02930
H239        H  0.21669136  0.86600782  0.80135371     0.08030
H240        H  0.16148865  0.84831861  0.74721478     0.06870
N241        N  0.86112943  0.01333430  0.04641205    -0.27520
N242        N  0.87961350  0.99881659  0.04728245    -0.35380
C243        C  0.88043500  0.98425392  0.02477172     0.00820
C244        C  0.86153117  0.98979397  0.00905558     0.06840
C245        C  0.84966457  0.00838957  0.02325500    -0.06260
H246        H  0.89460049  0.97202353  0.01927904     0.07510
H247        H  0.83471359  0.01875233  0.01646378     0.08710
Cu248      Cu  0.90518143  0.00308105  0.07601526     0.44170
Cu249      Cu  0.85431353  0.04146362  0.07509893     0.41990
Cu250      Cu  0.89768230  0.05125168  0.12771592     0.43880
N251        N  0.93148339  0.01662249  0.10038227    -0.34910
N252        N  0.92899140  0.03472595  0.11904536    -0.29160
C253        C  0.94978893  0.04237219  0.12781229    -0.05260
C254        C  0.96606374  0.02834566  0.11394879     0.06950
C255        C  0.95383640  0.01212899  0.09688114     0.00750
H256        H  0.95286726  0.05815770  0.14179593     0.08400
H257        H  0.96073817  0.99938028  0.08161534     0.07480
N258        N  0.86662712  0.07027367  0.12646304    -0.36360
N259        N  0.85161927  0.06784861  0.10651297    -0.28540
C260        C  0.83505418  0.08541994  0.10983365    -0.03780
C261        C  0.83964779  0.09939939  0.13318104     0.04830
C262        C  0.85970833  0.08907335  0.14330811     0.02930
H263        H  0.82105086  0.08829267  0.09581594     0.08030
H264        H  0.86908076  0.09541675  0.16106831     0.06870
N265        N  0.17275006  0.01235553  0.04619589    -0.27520
N266        N  0.15174416  0.00328715  0.04291530    -0.35380
C267        C  0.15047489  0.99010239  0.01954250     0.00820
C268        C  0.17168068  0.99063297  0.00735901     0.06840
C269        C  0.18548813  0.00492846  0.02484616    -0.06260
H270        H  0.13495965  0.98154608  0.01145567     0.07510
H271        H  0.20322546  0.01019375  0.02188769     0.08710
Cu272      Cu  0.12470371  0.01092943  0.06840274     0.44170
Cu273      Cu  0.18172122  0.03661225  0.07839283     0.41990
Cu274      Cu  0.13319231  0.05654274  0.12116995     0.43880
N275        N  0.09839245  0.02406858  0.09240616    -0.34910
N276        N  0.10132195  0.04146474  0.11173235    -0.29160
C277        C  0.08081226  0.04782364  0.12192656    -0.05260
C278        C  0.06423813  0.03361303  0.10829596     0.06950
C279        C  0.07601897  0.01870536  0.08982313     0.00750
H280        H  0.07811705  0.06230293  0.13740467     0.08400
H281        H  0.06877699  0.00562059  0.07491992     0.07480
N282        N  0.16626143  0.07048106  0.12508504    -0.36360
N283        N  0.18380648  0.06339737  0.11000053    -0.28540
C284        C  0.20204208  0.07813819  0.11669667    -0.03780
C285        C  0.19556279  0.09532241  0.13676310     0.04830
C286        C  0.17283705  0.08984509  0.14159307     0.02930
H287        H  0.21842759  0.07739342  0.10666812     0.08030
H288        H  0.16154274  0.10018177  0.15502751     0.06870
N289        N  0.86329895  0.51079211  0.85735135    -0.27520
N290        N  0.87843244  0.49285211  0.85138341    -0.35380
C291        C  0.87997743  0.47623169  0.87225018     0.00820
C292        C  0.86600549  0.48474231  0.89301881     0.06840
C293        C  0.85550374  0.50660783  0.88262239    -0.06260
H294        H  0.89203849  0.46050304  0.87315633     0.07510
H295        H  0.84433439  0.51964826  0.89332822     0.08710
Cu296      Cu  0.90251612  0.49718034  0.82092647     0.44170
Cu297      Cu  0.85588531  0.54160185  0.83194018     0.41990
Cu298      Cu  0.90032911  0.55729011  0.78411246     0.43880
N299        N  0.93078399  0.51401599  0.80242025    -0.34910
N300        N  0.93017180  0.53667069  0.78995085    -0.29160
C301        C  0.95165549  0.54439719  0.78437393    -0.05260
C302        C  0.96653852  0.52568069  0.79375100     0.06950
C303        C  0.95267599  0.50664887  0.80495547     0.00750
H304        H  0.95616404  0.56283879  0.77534604     0.08400
H305        H  0.95817462  0.48940907  0.81552855     0.07480
N306        N  0.86861663  0.57483230  0.78409971    -0.36360
N307        N  0.85239603  0.56933724  0.80184772    -0.28540
C308        C  0.83433633  0.58465747  0.79709395    -0.03780
C309        C  0.83951159  0.60048482  0.77530792     0.04830
C310        C  0.86132171  0.59375440  0.76753751     0.02930
H311        H  0.81878517  0.58458394  0.80887820     0.08030
H312        H  0.87135574  0.60242054  0.75148340     0.06870
N313        N  0.17119020  0.51194134  0.85668236    -0.27520
N314        N  0.15488706  0.49472114  0.85178113    -0.35380
C315        C  0.15315563  0.47862405  0.87307403     0.00820
C316        C  0.16823244  0.48677387  0.89311406     0.06840
C317        C  0.17959446  0.50784052  0.88177155    -0.06260
H318        H  0.14023552  0.46363647  0.87485260     0.07510
H319        H  0.19179274  0.52049213  0.89175479     0.08710
Cu320      Cu  0.12979225  0.49972597  0.82248510     0.44170
Cu321      Cu  0.17906888  0.54191556  0.83006314     0.41990
Cu322      Cu  0.13163113  0.56076325  0.78749026     0.43880
N323        N  0.10128058  0.51666525  0.80488704    -0.34910
N324        N  0.10181228  0.53964726  0.79307288    -0.29160
C325        C  0.08033360  0.54691312  0.78723360    -0.05260
C326        C  0.06553302  0.52755208  0.79577325     0.06950
C327        C  0.07942341  0.50864818  0.80680634     0.00750
H328        H  0.07577609  0.56532782  0.77833288     0.08400
H329        H  0.07396458  0.49089756  0.81659482     0.07480
N330        N  0.16392334  0.57715170  0.78480615    -0.36360
N331        N  0.18145274  0.56999965  0.79995545    -0.28540
C332        C  0.19981808  0.58443012  0.79320538    -0.03780
C333        C  0.19342535  0.60164972  0.77304782     0.04830
C334        C  0.17057389  0.59644444  0.76823540     0.02930
H335        H  0.21642458  0.58295240  0.80273444     0.08030
H336        H  0.15945063  0.60637109  0.75416123     0.06870
N337        N  0.86387418  0.43036576  0.04424618    -0.27520
N338        N  0.88163730  0.44607211  0.04705579    -0.35380
C339        C  0.88377020  0.46057193  0.02461948     0.00820
C340        C  0.86724912  0.45287727  0.00608631     0.06840
C341        C  0.85474319  0.43382737  0.01941253    -0.06260
H342        H  0.89774190  0.47397261  0.02106774     0.07510
H343        H  0.84115044  0.42199086  0.01098431     0.08710
Cu344      Cu  0.90692237  0.44094097  0.07590272     0.44170
Cu345      Cu  0.85509339  0.40293781  0.07325067     0.41990
Cu346      Cu  0.90121435  0.38658946  0.12042938     0.43880
N347        N  0.93403525  0.42557906  0.09749408    -0.34910
N348        N  0.93201541  0.40566687  0.11416952    -0.29160
C349        C  0.95284128  0.39938326  0.12365209    -0.05260
C350        C  0.96878276  0.41594933  0.11202690     0.06950
C351        C  0.95620004  0.43222865  0.09552009     0.00750
H352        H  0.95617940  0.38350842  0.13739681     0.08400
H353        H  0.96277046  0.44731048  0.08237119     0.07480
N354        N  0.86890929  0.36990046  0.12104173    -0.36360
N355        N  0.85199896  0.37621574  0.10451299    -0.28540
C356        C  0.83361690  0.36145360  0.11034777    -0.03780
C357        C  0.83936739  0.34480751  0.13126323     0.04830
C358        C  0.86184404  0.35073553  0.13750511     0.02930
H359        H  0.81746932  0.36232643  0.09967941     0.08030
H360        H  0.87247300  0.34137841  0.15252332     0.06870
N361        N  0.17083155  0.43093804  0.04403564    -0.27520
N362        N  0.15399380  0.44748312  0.04744582    -0.35380
C363        C  0.15207150  0.46227023  0.02519586     0.00820
C364        C  0.16769291  0.45396782  0.00611233     0.06840
C365        C  0.17950587  0.43417790  0.01895466    -0.06260
H366        H  0.13883937  0.47650522  0.02224725     0.07510
H367        H  0.19236282  0.42188444  0.01012109     0.08710
Cu368      Cu  0.12935478  0.44365148  0.07721003     0.44170
Cu369      Cu  0.17927853  0.40342253  0.07319240     0.41990
Cu370      Cu  0.13530768  0.39193870  0.12467200     0.43880
N371        N  0.10233494  0.42909833  0.09976069    -0.34910
N372        N  0.10448835  0.41008560  0.11749640    -0.29160
C373        C  0.08367838  0.40337473  0.12680708    -0.05260
C374        C  0.06761303  0.41872847  0.11400770     0.06950
C375        C  0.08008586  0.43478840  0.09700995     0.00750
H376        H  0.08041814  0.38778871  0.14098484     0.08400
H377        H  0.07337688  0.44880061  0.08280080     0.07480
N378        N  0.16683833  0.37409098  0.12433921    -0.36360
N379        N  0.18285268  0.37826516  0.10593261    -0.28540
C380        C  0.20051946  0.36244577  0.11100841    -0.03780
C381        C  0.19521484  0.34741752  0.13343889     0.04830
C382        C  0.17377597  0.35537911  0.14135720     0.02930
H383        H  0.21570033  0.36123543  0.09864331     0.08030
H384        H  0.16354372  0.34738437  0.15761216     0.06870
O385        O  0.23593412  0.69734662  0.70246773    -0.73180
O386        O  0.27310904  0.75344127  0.66564035    -0.74160
O387        O  0.27253583  0.69750679  0.66574962    -0.62780
O388        O  0.23572077  0.75247805  0.70171477    -0.71190
O389        O  0.25957692  0.75288206  0.73665219    -0.70740
O390        O  0.29763497  0.69864820  0.69941405    -0.61990
O391        O  0.29676690  0.75419441  0.70092349    -0.74500
O392        O  0.26103523  0.69702672  0.73606941    -0.73280
Cu393      Cu  0.25352654  0.72519129  0.68265447     1.04560
Cu394      Cu  0.27958896  0.72568201  0.71946921     1.04330
C395        C  0.24312178  0.68772227  0.72479925     0.93020
C396        C  0.29026716  0.76333673  0.67817290     0.92160
C397        C  0.29047065  0.68872501  0.67715360     0.84310
C398        C  0.24202360  0.76192695  0.72444258     0.90580
O399        O  0.73575646  0.74920279  0.70075609    -0.73180
O400        O  0.77118932  0.69390291  0.73924777    -0.74160
O401        O  0.77146799  0.74926697  0.73893384    -0.62780
O402        O  0.73519954  0.69406418  0.70122531    -0.71190
O403        O  0.76086892  0.69259807  0.66839989    -0.70740
O404        O  0.79627589  0.74960891  0.70496050    -0.61990
O405        O  0.79666910  0.69432946  0.70597899    -0.74500
O406        O  0.76050265  0.74822604  0.66675016    -0.73280
Cu407      Cu  0.75252093  0.72162329  0.72119914     1.04560
Cu408      Cu  0.77944463  0.72121600  0.68532524     1.04330
C409        C  0.74285331  0.75780737  0.67796836     0.93020
C410        C  0.78925840  0.68501303  0.72828925     0.92160
C411        C  0.78919465  0.75871017  0.72748463     0.84310
C412        C  0.74275549  0.68373164  0.67956543     0.90580
O413        O  0.27601248  0.19545455  0.23633239    -0.73180
O414        O  0.23853308  0.25060459  0.20109877    -0.74160
O415        O  0.23772928  0.19533919  0.20193477    -0.62780
O416        O  0.27767637  0.25131829  0.23479389    -0.71190
O417        O  0.29994645  0.25044801  0.19843614    -0.70740
O418        O  0.26080213  0.19422753  0.16650982    -0.61990
O419        O  0.26098400  0.25009005  0.16507418    -0.74500
O420        O  0.29901090  0.19465517  0.20070641    -0.73280
Cu421      Cu  0.25675525  0.22325887  0.21982498     1.04560
Cu422      Cu  0.28097284  0.22233346  0.18143803     1.04330
C423        C  0.29274930  0.18549224  0.22366203     0.93020
C424        C  0.24405026  0.25963001  0.17792234     0.92160
C425        C  0.24356798  0.18525606  0.17933677     0.84310
C426        C  0.29457573  0.26031968  0.22121074     0.90580
O427        O  0.73746005  0.19331316  0.20784780    -0.73180
O428        O  0.77170778  0.25005519  0.16946994    -0.74160
O429        O  0.77220791  0.19479114  0.16827321    -0.62780
O430        O  0.73701619  0.24861894  0.20828153    -0.71190
O431        O  0.76334634  0.24947973  0.24078210    -0.70740
O432        O  0.79784754  0.19404047  0.20149068    -0.61990
O433        O  0.79823973  0.24909142  0.20157922    -0.74500
O434        O  0.76328602  0.19379935  0.24096912    -0.73280
Cu435      Cu  0.75366702  0.22163517  0.18736164     1.04560
Cu436      Cu  0.78156975  0.22157999  0.22238798     1.04330
C437        C  0.74523409  0.18431548  0.23016630     0.93020
C438        C  0.79021057  0.25892152  0.17981458     0.92160
C439        C  0.79035810  0.18554889  0.17878130     0.84310
C440        C  0.74509466  0.25838877  0.23008971     0.90580
C441        C  0.22545117  0.28278309  0.13866641    -0.02080
C442        C  0.23123709  0.28195173  0.16650969     0.07600
C443        C  0.22520949  0.30305330  0.18338990    -0.02190
C444        C  0.21408494  0.32475301  0.17232630    -0.02200
C445        C  0.20811720  0.32527362  0.14462589     0.07730
C446        C  0.21361153  0.30409958  0.12790867    -0.02390
Br447      Br  0.20359034  0.30330124  0.09051343    -0.00940
Br448      Br  0.23249694  0.25428725  0.11504709    -0.01010
Br449      Br  0.20807024  0.35446191  0.19496491    -0.00970
Br450      Br  0.23295534  0.30338966  0.22160024    -0.00950
C451        C  0.00657018  0.39310331  0.10921422    -0.02080
C452        C  0.99402162  0.41572008  0.11495171     0.07600
C453        C  0.00577209  0.43871025  0.12210193    -0.02190
C454        C  0.02980459  0.43941619  0.12245694    -0.02200
C455        C  0.04236504  0.41710287  0.11587943     0.07730
C456        C  0.03065959  0.39378224  0.10974053    -0.02390
Br457      Br  0.04741922  0.36307803  0.10000694    -0.00940
Br458      Br  0.99105984  0.36152264  0.09855445    -0.01010
Br459      Br  0.04549745  0.47096963  0.13277429    -0.00970
Br460      Br  0.98901563  0.46922871  0.13241261    -0.00950
C461        C  0.81617143  0.30390097  0.12679318    -0.02080
C462        C  0.82539109  0.32374927  0.14330093     0.07600
C463        C  0.82225854  0.32274841  0.17162241    -0.02190
C464        C  0.81057097  0.30171955  0.18348547    -0.02200
C465        C  0.80208246  0.28128609  0.16709235     0.07730
C466        C  0.80464072  0.28270012  0.13863433    -0.02390
Br467      Br  0.79367742  0.25494060  0.11562029    -0.00940
Br468      Br  0.82040252  0.30469832  0.08795490    -0.01010
Br469      Br  0.80524107  0.30204752  0.22220631    -0.00970
Br470      Br  0.83308337  0.35084862  0.19428550    -0.00950
C471        C  0.18924206  0.47424101  0.93603589    -0.02080
C472        C  0.16843520  0.47833665  0.92204840     0.07600
C473        C  0.14759956  0.47416718  0.93591362    -0.02190
C474        C  0.14758635  0.46380129  0.96224645    -0.02200
C475        C  0.16825944  0.46142097  0.97691495     0.07730
C476        C  0.18912533  0.46695469  0.96367307    -0.02390
Br477      Br  0.21763279  0.46573851  0.98342036    -0.00940
Br478      Br  0.21806675  0.47766202  0.91738817    -0.01010
Br479      Br  0.11903724  0.45061033  0.97661581    -0.00970
Br480      Br  0.11872506  0.48520780  0.92075188    -0.00950
C481        C  0.22207094  0.64510536  0.72081585    -0.02080
C482        C  0.23100335  0.66523991  0.73734683     0.07600
C483        C  0.22883867  0.66321487  0.76589816    -0.02190
C484        C  0.21683258  0.64225794  0.77753208    -0.02200
C485        C  0.20720428  0.62283293  0.76090118     0.07730
C486        C  0.21011792  0.62414254  0.73256958    -0.02390
Br487      Br  0.19861020  0.59648421  0.70981578    -0.00940
Br488      Br  0.22759027  0.64471256  0.68215318    -0.01010
Br489      Br  0.21247006  0.64115294  0.81638457    -0.00970
Br490      Br  0.24163807  0.68916400  0.78977563    -0.00950
C491        C  0.84534894  0.47311330  0.93627161    -0.02080
C492        C  0.86604152  0.47584091  0.92175369     0.07600
C493        C  0.88690884  0.47035833  0.93506109    -0.02190
C494        C  0.88688695  0.46043264  0.96157176    -0.02200
C495        C  0.86647582  0.45975222  0.97680165     0.07730
C496        C  0.84567452  0.46627901  0.96399741    -0.02390
Br497      Br  0.81762417  0.46710958  0.98447048    -0.00940
Br498      Br  0.81632447  0.47776959  0.91824324    -0.01010
Br499      Br  0.91482851  0.44560999  0.97555619    -0.00970
Br500      Br  0.91608894  0.47898751  0.91891637    -0.00950
C501        C  0.00374205  0.52546636  0.81930337    -0.02080
C502        C  0.99186428  0.52707782  0.79437567     0.07600
C503        C  0.00427137  0.53006403  0.77005828    -0.02190
C504        C  0.02834309  0.53055010  0.77055293    -0.02200
C505        C  0.04020883  0.52798659  0.79535687     0.07730
C506        C  0.02780590  0.52586603  0.81977922    -0.02390
Br507      Br  0.04365656  0.52503725  0.85420995    -0.00940
Br508      Br  0.98720098  0.52434196  0.85314780    -0.01010
Br509      Br  0.04499259  0.53353407  0.73693565    -0.00970
Br510      Br  0.98841151  0.53228133  0.73574794    -0.00950
C511        C  0.82199291  0.64431692  0.77905765    -0.02080
C512        C  0.82558739  0.62156434  0.76392102     0.07600
C513        C  0.81660333  0.61936148  0.73749582    -0.02190
C514        C  0.80444711  0.64005471  0.72600466    -0.02200
C515        C  0.80134351  0.66311109  0.74088473     0.07730
C516        C  0.80989163  0.66507989  0.76755026    -0.02390
Br517      Br  0.80615330  0.69673399  0.78777898    -0.00940
Br518      Br  0.83461533  0.64755709  0.81510190    -0.01010
Br519      Br  0.79126861  0.63627989  0.69022951    -0.00970
Br520      Br  0.82040886  0.58766066  0.71731899    -0.00950
C521        C  0.22412732  0.14198327  0.18596969    -0.02080
C522        C  0.23099981  0.16233028  0.16840007     0.07600
C523        C  0.22698490  0.15977211  0.14018006    -0.02190
C524        C  0.21563503  0.13774982  0.12985526    -0.02200
C525        C  0.20852916  0.11779768  0.14747572     0.07730
C526        C  0.21282567  0.11993956  0.17550355    -0.02390
Br527      Br  0.20399569  0.09202820  0.19949758    -0.00940
Br528      Br  0.23163289  0.14284717  0.22418846    -0.01010
Br529      Br  0.20868763  0.13573336  0.09153682    -0.00970
Br530      Br  0.23633164  0.18643167  0.11507735    -0.00950
C531        C  0.00184598  0.04087901  0.08952989    -0.02080
C532        C  0.99105384  0.03269169  0.11363895     0.07600
C533        C  0.00430422  0.02753949  0.13691686    -0.02190
C534        C  0.02833108  0.02879503  0.13555607    -0.02200
C535        C  0.03913951  0.03531193  0.11091157     0.07730
C536        C  0.02580806  0.04219718  0.08817708    -0.02390
Br537      Br  0.04028866  0.05431991  0.05531056    -0.00940
Br538      Br  0.98384540  0.05116380  0.05847443    -0.01010
Br539      Br  0.04634176  0.01996338  0.16703114    -0.00970
Br540      Br  0.98960912  0.01733465  0.17026842    -0.00950
C541        C  0.82636157  0.16629381  0.16096937    -0.02080
C542        C  0.80258662  0.16438129  0.16503158     0.07600
C543        C  0.79076695  0.14161436  0.15722636    -0.02190
C544        C  0.80293528  0.12018594  0.14740529    -0.02200
C545        C  0.82683784  0.12189773  0.14375019     0.07730
C546        C  0.83838741  0.14534672  0.14988017    -0.02390
Br547      Br  0.87044628  0.14975206  0.14166954    -0.00940
Br548      Br  0.84235524  0.19825045  0.16919272    -0.01010
Br549      Br  0.78678997  0.08795111  0.14102637    -0.00970
Br550      Br  0.75791759  0.13913856  0.16076338    -0.00950
C551        C  0.18386979  0.98765806  0.93183845    -0.02080
C552        C  0.17639629  0.96230178  0.92597797     0.07600
C553        C  0.17077336  0.94525517  0.94725472    -0.02190
C554        C  0.17117883  0.95405356  0.97423731    -0.02200
C555        C  0.17675825  0.98013758  0.98005480     0.07730
C556        C  0.18398631  0.99667905  0.95882196    -0.02390
Br557      Br  0.19204828  0.03233350  0.96595121    -0.00940
Br558      Br  0.19286379  0.01030621  0.90255265    -0.01010
Br559      Br  0.16385458  0.93027427  0.00324665    -0.00970
Br560      Br  0.16117878  0.91022736  0.93923013    -0.00950
C561        C  0.21312682  0.80706172  0.77472930    -0.02080
C562        C  0.20708783  0.82793391  0.75779099     0.07600
C563        C  0.21205200  0.82693018  0.72989234    -0.02190
C564        C  0.22292499  0.80513201  0.71887302    -0.02200
C565        C  0.22945290  0.78428967  0.73591744     0.07730
C566        C  0.22444724  0.78546217  0.76390752    -0.02390
Br567      Br  0.23169459  0.75694543  0.78753622    -0.00940
Br568      Br  0.20462751  0.80719290  0.81257232    -0.01010
Br569      Br  0.22960248  0.80495981  0.68044076    -0.00970
Br570      Br  0.20487688  0.85609570  0.70685641    -0.00950
C571        C  0.84545036  0.94998769  0.94755244    -0.02080
C572        C  0.85880517  0.96229000  0.92735240     0.07600
C573        C  0.87008136  0.98591754  0.93343117    -0.02190
C574        C  0.87023014  0.99546773  0.96008800    -0.02200
C575        C  0.85829117  0.98213223  0.98055403     0.07730
C576        C  0.84504323  0.96015836  0.97405947    -0.02390
Br577      Br  0.82731554  0.94336855  0.00202013    -0.00940
Br578      Br  0.82926217  0.91807891  0.94010846    -0.01010
Br579      Br  0.88766089  0.02626483  0.96890391    -0.00970
Br580      Br  0.88520207  0.00560295  0.90526642    -0.00950
C581        C  0.00347566  0.92044874  0.77064290    -0.02080
C582        C  0.99250472  0.90534869  0.79064964     0.07600
C583        C  0.00563412  0.89070818  0.80906207    -0.02190
C584        C  0.02957540  0.89271961  0.80881670    -0.02200
C585        C  0.04046456  0.90913303  0.78997465     0.07730
C586        C  0.02749036  0.92225575  0.77027606    -0.02390
Br587      Br  0.04265601  0.94373046  0.74374232    -0.00940
Br588      Br  0.98567966  0.94011668  0.74500868    -0.01010
Br589      Br  0.04750095  0.87321699  0.83452366    -0.00970
Br590      Br  0.99083246  0.86768469  0.83454738    -0.00950
C591        C  0.83634035  0.80137423  0.75612914    -0.02080
C592        C  0.82467647  0.82501935  0.75985097     0.07600
C593        C  0.80103912  0.82624606  0.75422093    -0.02190
C594        C  0.78922227  0.80412795  0.74491487    -0.02200
C595        C  0.80117105  0.78100269  0.73984918     0.07730
C596        C  0.82470330  0.77965165  0.74556077    -0.02390
Br597      Br  0.84080452  0.74755543  0.74007661    -0.00940
Br598      Br  0.86787316  0.79774547  0.76710921    -0.01010
Br599      Br  0.75671807  0.80602184  0.73817278    -0.00970
Br600      Br  0.78488708  0.85859092  0.75742915    -0.00950
C601        C  0.71157992  0.61894434  0.67528200    -0.02080
C602        C  0.70892885  0.61597186  0.64706644     0.07600
C603        C  0.71782304  0.63498656  0.62933988    -0.02190
C604        C  0.72867793  0.65729095  0.63983988    -0.02200
C605        C  0.73101179  0.66055899  0.66819375     0.07730
C606        C  0.72276379  0.64094307  0.68584686    -0.02390
Br607      Br  0.72779224  0.64288577  0.72461960    -0.00940
Br608      Br  0.70061750  0.59223532  0.69960932    -0.01010
Br609      Br  0.73903336  0.68388557  0.61503614    -0.00970
Br610      Br  0.71408038  0.63139487  0.59057534    -0.00950
C611        C  0.50121588  0.55498533  0.61381204    -0.02080
C612        C  0.49005843  0.53057267  0.61548774     0.07600
C613        C  0.50332211  0.50785149  0.61708461    -0.02190
C614        C  0.52727605  0.50936225  0.61531914    -0.02200
C615        C  0.53827567  0.53360439  0.61280561     0.07730
C616        C  0.52526449  0.55644291  0.61294239    -0.02390
Br617      Br  0.54031184  0.58977528  0.61004546    -0.00940
Br618      Br  0.48402404  0.58658790  0.61009501    -0.01010
Br619      Br  0.54512756  0.47806666  0.61677158    -0.00970
Br620      Br  0.48893710  0.47445410  0.62260687    -0.00950
C621        C  0.32026269  0.62370532  0.67060467    -0.02080
C622        C  0.32489188  0.62278320  0.64254506     0.07600
C623        C  0.31765605  0.64328010  0.62569587    -0.02190
C624        C  0.30587337  0.66444829  0.63677839    -0.02200
C625        C  0.30237575  0.66614487  0.66510762     0.07730
C626        C  0.30924589  0.64532715  0.68187989    -0.02390
Br627      Br  0.30187640  0.64500358  0.72010645    -0.00940
Br628      Br  0.32777707  0.59462573  0.69360180    -0.01010
Br629      Br  0.29469557  0.69087946  0.61254661    -0.00970
Br630      Br  0.32514120  0.64355487  0.58752827    -0.00950
C631        C  0.66761871  0.45311871  0.47614890    -0.02080
C632        C  0.67707636  0.47779546  0.48164308     0.07600
C633        C  0.68887213  0.49131200  0.46099160    -0.02190
C634        C  0.68915022  0.48128433  0.43442424    -0.02200
C635        C  0.67751940  0.45800557  0.42852334     0.07730
C636        C  0.66764922  0.44336963  0.44958704    -0.02390
Br637      Br  0.65327855  0.41041096  0.44176196    -0.00940
Br638      Br  0.65420819  0.43275953  0.50496679    -0.01010
Br639      Br  0.70396386  0.50023594  0.40561023    -0.00970
Br640      Br  0.70274038  0.52462992  0.46814500    -0.00950
C641        C  0.71834063  0.32464751  0.23625595    -0.02080
C642        C  0.71028032  0.32407495  0.26309044     0.07600
C643        C  0.71458223  0.30236325  0.27967782    -0.02190
C644        C  0.72641769  0.28096116  0.26918324    -0.02200
C645        C  0.73373506  0.28112569  0.24197777     0.07730
C646        C  0.73005194  0.30326630  0.22570338    -0.02390
Br647      Br  0.74194871  0.30502404  0.18922853    -0.00940
Br648      Br  0.71392924  0.35514671  0.21419867    -0.01010
Br649      Br  0.73164180  0.25103717  0.29175734    -0.00970
Br650      Br  0.70324707  0.30135666  0.31637581    -0.00950
C651        C  0.34432154  0.47034359  0.43500401    -0.02080
C652        C  0.36531587  0.46431457  0.42246622     0.07600
C653        C  0.38576706  0.46724450  0.43749684    -0.02190
C654        C  0.38550614  0.47880667  0.46321598    -0.02200
C655        C  0.36455193  0.48324895  0.47659259     0.07730
C656        C  0.34388493  0.47860621  0.46235545    -0.02390
Br657      Br  0.31484821  0.48257833  0.48025248    -0.00940
Br658      Br  0.31612094  0.46825661  0.41470465    -0.01010
Br659      Br  0.41426487  0.49112478  0.47802170    -0.00970
Br660      Br  0.41426757  0.45298623  0.42473303    -0.00950
C661        C  0.50421279  0.39237707  0.28912648    -0.02080
C662        C  0.49346080  0.41662933  0.28586974     0.07600
C663        C  0.50698960  0.43913156  0.28243142    -0.02190
C664        C  0.53095848  0.43766054  0.28365421    -0.02200
C665        C  0.54168023  0.41365657  0.28811014     0.07730
C666        C  0.52826101  0.39090367  0.29010202    -0.02390
Br667      Br  0.54263662  0.35784875  0.29620353    -0.00940
Br668      Br  0.48625799  0.36126225  0.29455202    -0.01010
Br669      Br  0.54914624  0.46866476  0.27862464    -0.00970
Br670      Br  0.49277747  0.47209821  0.27529158    -0.00950
C671        C  0.30410325  0.30755065  0.21856339    -0.02080
C672        C  0.30724291  0.28328038  0.23120279     0.07600
C673        C  0.32218416  0.28129691  0.25349353    -0.02190
C674        C  0.33262496  0.30361816  0.26436100    -0.02200
C675        C  0.32826038  0.32803442  0.25280867     0.07730
C676        C  0.31425155  0.32996543  0.22967886    -0.02390
Br677      Br  0.30879641  0.36340024  0.21349537    -0.00940
Br678      Br  0.28673356  0.31011360  0.18540993    -0.01010
Br679      Br  0.35355655  0.30069363  0.29452964    -0.00970
Br680      Br  0.33012265  0.24785049  0.26743067    -0.00950
C681        C  0.32248133  0.13935766  0.27238573    -0.02080
C682        C  0.32519074  0.11740267  0.25583436     0.07600
C683        C  0.31676270  0.11750638  0.22909117    -0.02190
C684        C  0.30635589  0.13986284  0.21853830    -0.02200
C685        C  0.30402750  0.16218878  0.23490221     0.07730
C686        C  0.31124305  0.16134269  0.26226930    -0.02390
Br687      Br  0.30556578  0.18980635  0.28645689    -0.00940
Br688      Br  0.33521948  0.13984945  0.30858772    -0.01010
Br689      Br  0.29350875  0.13878846  0.18240367    -0.00970
Br690      Br  0.31866100  0.08652445  0.20734433    -0.00950
C691        C  0.52710015  0.04138261  0.31740917    -0.02080
C692        C  0.53971152  0.03594785  0.29375009     0.07600
C693        C  0.52808857  0.03106850  0.26913827    -0.02190
C694        C  0.50402532  0.02995566  0.26861828    -0.02200
C695        C  0.49152742  0.03353090  0.29271528     0.07730
C696        C  0.50311178  0.04004902  0.31692618    -0.02390
Br697      Br  0.48618788  0.04808807  0.34940921    -0.00940
Br698      Br  0.54254182  0.05171636  0.35043781    -0.00610
Br699      Br  0.48829464  0.02196938  0.23516117    -0.00970
Br700      Br  0.54499149  0.02421363  0.23641696    -0.00950
C701        C  0.71148465  0.16501922  0.25365686    -0.02080
C702        C  0.73357570  0.16214380  0.24304411     0.07600
C703        C  0.74415034  0.13770744  0.24358038    -0.02190
C704        C  0.73194362  0.11579726  0.25271399    -0.02200
C705        C  0.70962723  0.11854490  0.26304463     0.07730
C706        C  0.69979431  0.14345115  0.26440847    -0.02390
Br707      Br  0.67095711  0.14864236  0.28246089    -0.00940
Br708      Br  0.69754195  0.19876298  0.25413141    -0.01010
Br709      Br  0.74535833  0.08192293  0.24913136    -0.00970
Br710      Br  0.77523498  0.13406593  0.23126466    -0.00950
C711        C  0.66548260  0.94161623  0.45610892    -0.02080
C712        C  0.67603332  0.95661460  0.47643376     0.07600
C713        C  0.68840597  0.97907198  0.46943242    -0.02190
C714        C  0.68832438  0.98804882  0.44241414    -0.02200
C715        C  0.67636927  0.97392408  0.42215093     0.07730
C716        C  0.66616259  0.94985413  0.42896370    -0.02390
Br717      Br  0.65326224  0.92770946  0.40118274    -0.00940
Br718      Br  0.64924502  0.91022652  0.46571346    -0.01010
Br719      Br  0.70290154  0.02080881  0.43441790    -0.00970
Br720      Br  0.70442332  0.99814940  0.49735136    -0.00950
C721        C  0.73114767  0.82494510  0.65046327    -0.02080
C722        C  0.70750509  0.82330407  0.64488979     0.07600
C723        C  0.69578528  0.79955529  0.64890378    -0.02190
C724        C  0.70743327  0.77801279  0.65944473    -0.02200
C725        C  0.73098103  0.77974989  0.66511734     0.07730
C726        C  0.74294212  0.80307536  0.65996671    -0.02390
Br727      Br  0.77540836  0.80557652  0.66689406    -0.00940
Br728      Br  0.74728307  0.85756460  0.64693038    -0.01010
Br729      Br  0.69134207  0.74563423  0.66496250    -0.00970
Br730      Br  0.66408414  0.79571249  0.63855375    -0.00950
C731        C  0.34501781  0.95516348  0.45990318    -0.02080
C732        C  0.35994398  0.96664420  0.47916141     0.07600
C733        C  0.37228666  0.98928743  0.47202558    -0.02190
C734        C  0.37194371  0.99837347  0.44516005    -0.02200
C735        C  0.35854781  0.98557826  0.42549979     0.07730
C736        C  0.34417138  0.96490114  0.43318318    -0.02390
Br737      Br  0.32447370  0.94893001  0.40647174    -0.00940
Br738      Br  0.32721670  0.92475420  0.46884253    -0.01010
Br739      Br  0.39039604  0.02799546  0.43502236    -0.00970
Br740      Br  0.38959339  0.00824475  0.49903557    -0.00950
C741        C  0.50838115  0.88800244  0.61425588    -0.02080
C742        C  0.49524781  0.91065895  0.61620556     0.07600
C743        C  0.50606834  0.93471867  0.62075375    -0.02190
C744        C  0.53003229  0.93635138  0.62201062    -0.02200
C745        C  0.54331193  0.91394088  0.61847411     0.07730
C746        C  0.53240604  0.88961655  0.61523140    -0.02390
Br747      Br  0.55014925  0.85872988  0.60963732    -0.00940
Br748      Br  0.49348047  0.85500353  0.60825394    -0.01010
Br749      Br  0.54466238  0.96938215  0.62868746    -0.00970
Br750      Br  0.48795370  0.96551396  0.62507086    -0.00950
C751        C  0.32645562  0.80667057  0.63290734    -0.02080
C752        C  0.32454461  0.83063143  0.64629448     0.07600
C753        C  0.31164556  0.83246423  0.67019143    -0.02190
C754        C  0.30081217  0.81029713  0.68088014    -0.02200
C755        C  0.30213794  0.78637524  0.66709013     0.07730
C756        C  0.31520199  0.78461065  0.64324807    -0.02390
Br757      Br  0.31937440  0.75161229  0.62608189    -0.00940
Br758      Br  0.34514651  0.80395975  0.60087089    -0.01010
Br759      Br  0.28476147  0.81279612  0.71485711    -0.00970
Br760      Br  0.30898799  0.86543348  0.68827077    -0.00950
loop_ 
_geom_bond_atom_site_label_1 
_geom_bond_atom_site_label_2 
_geom_bond_distance 
_geom_bond_site_symmetry_2 
_ccdc_geom_bond_type 
N1            N2   1.321       .  A
N1            C5   1.349       .  A
N1           Cu9   2.082       .  S
N2            C3   1.339       .  A
N2           Cu8   2.062       .  S
C3            C4   1.382       .  A
C3            H6   1.082       .  S
C4            C5   1.390       .  A
C4          C732   1.486       .  S
C5            H7   1.081       .  S
Cu8          N11   2.062       .  S
Cu9          N19   2.084       .  S
Cu10         N12   2.071       .  S
Cu10         N18   2.072       .  S
N11          N12   1.321       .  A
N11          C15   1.342       .  A
N12          C13   1.347       .  A
C13          C14   1.384       .  A
C13          H16   1.082       .  S
C14          C15   1.380       .  A
C14         C742   1.474       .  S
C15          H17   1.082       .  S
N18          N19   1.325       .  A
N18          C22   1.343       .  A
N19          C20   1.347       .  A
C20          C21   1.382       .  A
C20          H23   1.082       .  S
C21          C22   1.378       .  A
C21         C752   1.472       .  S
C22          H24   1.082       .  S
N25          N26   1.322       .  A
N25          C29   1.347       .  A
N25         Cu33   2.072       .  S
N26          C27   1.343       .  A
N26         Cu32   2.069       .  S
C27          C28   1.381       .  A
C27          H30   1.082       .  S
C28          C29   1.383       .  A
C28         C712   1.473       .  S
C29          H31   1.082       .  S
Cu32         N35   2.069       .  S
Cu33         N43   2.073       .  S
Cu34         N36   2.074       .  S
Cu34         N42   2.074       .  S
N35          N36   1.322       .  A
N35          C39   1.343       .  A
N36          C37   1.347       .  A
C37          C38   1.385       .  A
C37          H40   1.082       .  S
C38          C39   1.382       .  A
C38         C745   1.479       .  S
C39          H41   1.082       .  S
N42          N43   1.323       .  A
N42          C46   1.344       .  A
N43          C44   1.344       .  A
C44          C45   1.384       .  A
C44          H47   1.082       .  S
C45          C46   1.384       .  A
C45         C722   1.482       .  S
C46          H48   1.082       .  S
N49          N50   1.320       .  A
N49          C53   1.349   1_545  A
N49         Cu57   2.081       .  S
N50          C51   1.339   1_545  A
N50         Cu56   2.057       .  S
C51          C52   1.382       .  A
C51          H54   1.082       .  S
C52          C53   1.391       .  A
C52         C715   1.487       .  S
C53          H55   1.081   1_565  S
Cu56         N59   2.057       .  S
Cu57         N67   2.083       .  S
Cu58         N60   2.074       .  S
Cu58         N66   2.075       .  S
N59          N60   1.320       .  A
N59          C63   1.340       .  A
N60          C61   1.348       .  A
C61          C62   1.387       .  A
C61          H64   1.082       .  S
C62          C63   1.381       .  A
C62         C692   1.481       .  S
C63          H65   1.082       .  S
N66          N67   1.325       .  A
N66          C70   1.343       .  A
N67          C68   1.346       .  A
C68          C69   1.385       .  A
C68          H71   1.082       .  S
C69          C70   1.382       .  A
C69         C705   1.482       .  S
C70          H72   1.082       .  S
N73          N74   1.323   1_545  A
N73          C77   1.348       .  A
N73         Cu81   2.079       .  S
N74          C75   1.342       .  A
N74         Cu80   2.069   1_565  S
C75          C76   1.380       .  A
C75          H78   1.082       .  S
C76          C77   1.384   1_565  A
C76         C735   1.475       .  S
C77          H79   1.082       .  S
Cu80         N83   2.068       .  S
Cu81         N91   2.080       .  S
Cu82         N84   2.068       .  S
Cu82         N90   2.068       .  S
N83          N84   1.321       .  A
N83          C87   1.343       .  A
N84          C85   1.346       .  A
C85          C86   1.384       .  A
C85          H88   1.082       .  S
C86          C87   1.383       .  A
C86         C695   1.479       .  S
C87          H89   1.082   1_545  S
N90          N91   1.324       .  A
N90          C94   1.344       .  A
N91          C92   1.346       .  A
C92          C93   1.383       .  A
C92          H95   1.082       .  S
C93          C94   1.379       .  A
C93         C682   1.475       .  S
C94          H96   1.082       .  S
N97          N98   1.321       .  A
N97         C101   1.350       .  A
N97        Cu105   2.085       .  S
N98          C99   1.340       .  A
N98        Cu104   2.070       .  S
C99         C100   1.385       .  A
C99         H102   1.082       .  S
C100        C101   1.391       .  A
C100        C652   1.491       .  S
C101        H103   1.082       .  S
Cu104       N107   2.073       .  S
Cu105       N115   2.086       .  S
Cu106       N108   2.067       .  S
Cu106       N114   2.068       .  S
N107        N108   1.320       .  A
N107        C111   1.344       .  A
N108        C109   1.346       .  A
C109        C110   1.386       .  A
C109        H112   1.082       .  S
C110        C111   1.386       .  A
C110        C662   1.485       .  S
C111        H113   1.082       .  S
N114        N115   1.325       .  A
N114        C118   1.343       .  A
N115        C116   1.347       .  A
C116        C117   1.383       .  A
C116        H119   1.082       .  S
C117        C118   1.378       .  A
C117        C675   1.472       .  S
C118        H120   1.082       .  S
N121        N122   1.322       .  A
N121        C125   1.347       .  A
N121       Cu129   2.070       .  S
N122        C123   1.341       .  A
N122       Cu128   2.066       .  S
C123        C124   1.380       .  A
C123        H126   1.082       .  S
C124        C125   1.383       .  A
C124        C635   1.472       .  S
C125        H127   1.082       .  S
Cu128       N131   2.066       .  S
Cu129       N139   2.071       .  S
Cu130       N132   2.081       .  S
Cu130       N138   2.082       .  S
N131        N132   1.321       .  A
N131        C135   1.342       .  A
N132        C133   1.348       .  A
C133        C134   1.387       .  A
C133        H136   1.082       .  S
C134        C135   1.382       .  A
C134        C665   1.482       .  S
C135        H137   1.082       .  S
N138        N139   1.324       .  A
N138        C142   1.345       .  A
N139        C140   1.345       .  A
C140        C141   1.380       .  A
C140        H143   1.082       .  S
C141        C142   1.382       .  A
C141        C642   1.475       .  S
C142        H144   1.082       .  S
N145        N146   1.320       .  A
N145        C149   1.350       .  A
N145       Cu153   2.087       .  S
N146        C147   1.340       .  A
N146       Cu152   2.067       .  S
C147        C148   1.385       .  A
C147        H150   1.081       .  S
C148        C149   1.392       .  A
C148        C655   1.493       .  S
C149        H151   1.081       .  S
Cu152       N155   2.071       .  S
Cu153       N163   2.089       .  S
Cu154       N156   2.068       .  S
Cu154       N162   2.070       .  S
N155        N156   1.319       .  A
N155        C159   1.343       .  A
N156        C157   1.346       .  A
C157        C158   1.387       .  A
C157        H160   1.081       .  S
C158        C159   1.386       .  A
C158        C612   1.488       .  S
C159        H161   1.082       .  S
N162        N163   1.324       .  A
N162        C166   1.343       .  A
N163        C164   1.346       .  A
C164        C165   1.387       .  A
C164        H167   1.082       .  S
C165        C166   1.382       .  A
C165        C622   1.485       .  S
C166        H168   1.082       .  S
N169        N170   1.322       .  A
N169        C173   1.349       .  A
N169       Cu177   2.077       .  S
N170        C171   1.339       .  A
N170       Cu176   2.061       .  S
C171        C172   1.380       .  A
C171        H174   1.082       .  S
C172        C173   1.387       .  A
C172        C632   1.479       .  S
C173        H175   1.082       .  S
Cu176       N179   2.061       .  S
Cu177       N187   2.078       .  S
Cu178       N180   2.072       .  S
Cu178       N186   2.073       .  S
N179        N180   1.320       .  A
N179        C183   1.342       .  A
N180        C181   1.347       .  A
C181        C182   1.386       .  A
C181        H184   1.082       .  S
C182        C183   1.381       .  A
C182        C615   1.478       .  S
C183        H185   1.082       .  S
N186        N187   1.324       .  A
N186        C190   1.342       .  A
N187        C188   1.346       .  A
C188        C189   1.384       .  A
C188        H191   1.082       .  S
C189        C190   1.381       .  A
C189        C602   1.479       .  S
C190        H192   1.082       .  S
N193        N194   1.320       .  A
N193        C197   1.349       .  A
N193       Cu201   2.077       .  S
N194        C195   1.339       .  A
N194       Cu200   2.056       .  S
C195        C196   1.381       .  A
C195        H198   1.082       .  S
C196        C197   1.390       .  A
C196        C572   1.483       .  S
C197        H199   1.081       .  S
Cu200       N203   2.056       .  S
Cu201       N211   2.080       .  S
Cu202       N204   2.074       .  S
Cu202       N210   2.074       .  S
N203        N204   1.321       .  A
N203        C207   1.340       .  A
N204        C205   1.348       .  A
C205        C206   1.386       .  A
C205        H208   1.082       .  S
C206        C207   1.379       .  A
C206        C582   1.475       .  S
C207        H209   1.082       .  S
N210        N211   1.324       .  A
N210        C214   1.343       .  A
N211        C212   1.345       .  A
C212        C213   1.384       .  A
C212        H215   1.082       .  S
C213        C214   1.383       .  A
C213        C592   1.483       .  S
C214        H216   1.082       .  S
N217        N218   1.323       .  A
N217        C221   1.348       .  A
N217       Cu225   2.081       .  S
N218        C219   1.343       .  A
N218       Cu224   2.073       .  S
C219        C220   1.380       .  A
C219        H222   1.082       .  S
C220        C221   1.384       .  A
C220        C552   1.475       .  S
C221        H223   1.082       .  S
Cu224       N227   2.073       .  S
Cu225       N235   2.081       .  S
Cu226       N228   2.064       .  S
Cu226       N234   2.065       .  S
N227        N228   1.321       .  A
N227        C231   1.344       .  A
N228        C229   1.346       .  A
C229        C230   1.381       .  A
C229        H232   1.082       .  S
C230        C231   1.382       .  A
C230        C585   1.472       .  S
C231        H233   1.082       .  S
N234        N235   1.323       .  A
N234        C238   1.343       .  A
N235        C236   1.346       .  A
C236        C237   1.385       .  A
C236        H239   1.082       .  S
C237        C238   1.380       .  A
C237        C562   1.478       .  S
C238        H240   1.082       .  S
N241        N242   1.322   1_545  A
N241        C245   1.346       .  A
N241       Cu249   2.071       .  S
N242        C243   1.343       .  A
N242       Cu248   2.068   1_565  S
C243        C244   1.381       .  A
C243        H246   1.082       .  S
C244        C245   1.382   1_565  A
C244        C575   1.472   1_554  S
C245        H247   1.082       .  S
Cu248       N251   2.068       .  S
Cu249       N259   2.071       .  S
Cu250       N252   2.074       .  S
Cu250       N258   2.074       .  S
N251        N252   1.322       .  A
N251        C255   1.343       .  A
N252        C253   1.347       .  A
C253        C254   1.384       .  A
C253        H256   1.082       .  S
C254        C255   1.382       .  A
C254        C532   1.478       .  S
C255        H257   1.082   1_545  S
N258        N259   1.322       .  A
N258        C262   1.344       .  A
N259        C260   1.344       .  A
C260        C261   1.384       .  A
C260        H263   1.082       .  S
C261        C262   1.385       .  A
C261        C545   1.484       .  S
C262        H264   1.082       .  S
N265        N266   1.322       .  A
N265        C269   1.350       .  A
N265       Cu273   2.087       .  S
N266        C267   1.341   1_545  A
N266       Cu272   2.065       .  S
C267        C268   1.381       .  A
C267        H270   1.082       .  S
C268        C269   1.389   1_565  A
C268        C555   1.484   1_554  S
C269        H271   1.082       .  S
Cu272       N275   2.065       .  S
Cu273       N283   2.087       .  S
Cu274       N276   2.068       .  S
Cu274       N282   2.069       .  S
N275        N276   1.320       .  A
N275        C279   1.342       .  A
N276        C277   1.346       .  A
C277        C278   1.385       .  A
C277        H280   1.082       .  S
C278        C279   1.383       .  A
C278        C535   1.479       .  S
C279        H281   1.082       .  S
N282        N283   1.324       .  A
N282        C286   1.343       .  A
N283        C284   1.347       .  A
C284        C285   1.386       .  A
C284        H287   1.082       .  S
C285        C286   1.379       .  A
C285        C525   1.479       .  S
C286        H288   1.082       .  S
N289        N290   1.321       .  A
N289        C293   1.345       .  A
N289       Cu297   2.072       .  S
N290        C291   1.343       .  A
N290       Cu296   2.074       .  S
C291        C292   1.387       .  A
C291        H294   1.081       .  S
C292        C293   1.387       .  A
C292        C492   1.489       .  S
C293        H295   1.081       .  S
Cu296       N299   2.077       .  S
Cu297       N307   2.072       .  S
Cu298       N300   2.072       .  S
Cu298       N306   2.072       .  S
N299        N300   1.322       .  A
N299        C303   1.345       .  A
N300        C301   1.346       .  A
C301        C302   1.385       .  A
C301        H304   1.082       .  S
C302        C303   1.385       .  A
C302        C502   1.484       .  S
C303        H305   1.082       .  S
N306        N307   1.322       .  A
N306        C310   1.344       .  A
N307        C308   1.345       .  A
C308        C309   1.382       .  A
C308        H311   1.082       .  S
C309        C310   1.381       .  A
C309        C512   1.475       .  S
C310        H312   1.082       .  S
N313        N314   1.321       .  A
N313        C317   1.347       .  A
N313       Cu321   2.078       .  S
N314        C315   1.342       .  A
N314       Cu320   2.075       .  S
C315        C316   1.386       .  A
C315        H318   1.081       .  S
C316        C317   1.389       .  A
C316        C472   1.492       .  S
C317        H319   1.082       .  S
Cu320       N323   2.078       .  S
Cu321       N331   2.079       .  S
Cu322       N324   2.070       .  S
Cu322       N330   2.070       .  S
N323        N324   1.322       .  A
N323        C327   1.345       .  A
N324        C325   1.345       .  A
C325        C326   1.384       .  A
C325        H328   1.082       .  S
C326        C327   1.385       .  A
C326        C505   1.483       .  S
C327        H329   1.082       .  S
N330        N331   1.322       .  A
N330        C334   1.344       .  A
N331        C332   1.346       .  A
C332        C333   1.386       .  A
C332        H335   1.082       .  S
C333        C334   1.382       .  A
C333        C485   1.481       .  S
C334        H336   1.082       .  S
N337        N338   1.321       .  A
N337        C341   1.347       .  A
N337       Cu345   2.075       .  S
N338        C339   1.341       .  A
N338       Cu344   2.068       .  S
C339        C340   1.385       .  A
C339        H342   1.082       .  S
C340        C341   1.388       .  A
C340        C495   1.487   1_554  S
C341        H343   1.082       .  S
Cu344       N347   2.071       .  S
Cu345       N355   2.075       .  S
Cu346       N348   2.072       .  S
Cu346       N354   2.072       .  S
N347        N348   1.321       .  A
N347        C351   1.343       .  A
N348        C349   1.346       .  A
C349        C350   1.386       .  A
C349        H352   1.082       .  S
C350        C351   1.384       .  A
C350        C452   1.484       .  S
C351        H353   1.082       .  S
N354        N355   1.323       .  A
N354        C358   1.343       .  A
N355        C356   1.345       .  A
C356        C357   1.384       .  A
C356        H359   1.082       .  S
C357        C358   1.382       .  A
C357        C462   1.480       .  S
C358        H360   1.082       .  S
N361        N362   1.321       .  A
N361        C365   1.348       .  A
N361       Cu369   2.082       .  S
N362        C363   1.341       .  A
N362       Cu368   2.070       .  S
C363        C364   1.385       .  A
C363        H366   1.081       .  S
C364        C365   1.389       .  A
C364        C475   1.490   1_554  S
C365        H367   1.081       .  S
Cu368       N371   2.072       .  S
Cu369       N379   2.082       .  S
Cu370       N372   2.069       .  S
Cu370       N378   2.070       .  S
N371        N372   1.321       .  A
N371        C375   1.344       .  A
N372        C373   1.346       .  A
C373        C374   1.385       .  A
C373        H376   1.082       .  S
C374        C375   1.384       .  A
C374        C455   1.483       .  S
C375        H377   1.082       .  S
N378        N379   1.323       .  A
N378        C382   1.344       .  A
N379        C380   1.346       .  A
C380        C381   1.385       .  A
C380        H383   1.082       .  S
C381        C382   1.381       .  A
C381        C445   1.481       .  S
C382        H384   1.082       .  S
O385       Cu393   2.016       .  S
O385        C395   1.279       .  A
O386       Cu393   2.031       .  S
O386        C396   1.281       .  A
O387       Cu393   2.003       .  S
O387        C397   1.276       .  A
O388       Cu393   1.997       .  S
O388        C398   1.275       .  A
O389       Cu394   2.024       .  S
O389        C398   1.281       .  A
O390       Cu394   2.019       .  S
O390        C397   1.280       .  A
O391       Cu394   1.999       .  S
O391        C396   1.275       .  A
O392       Cu394   2.004       .  S
O392        C395   1.276       .  A
Cu393      Cu394   2.368       .  S
C395        C482   1.491       .  S
C396        C755   1.478       .  S
C397        C625   1.488       .  S
C398        C565   1.487       .  S
O399       Cu407   2.005       .  S
O399        C409   1.278       .  A
O400       Cu407   2.013       .  S
O400        C410   1.278       .  A
O401       Cu407   2.001       .  S
O401        C411   1.276       .  A
O402       Cu407   1.999       .  S
O402        C412   1.276       .  A
O403       Cu408   2.008       .  S
O403        C412   1.278       .  A
O404       Cu408   2.008       .  S
O404        C411   1.278       .  A
O405       Cu408   1.999       .  S
O405        C410   1.276       .  A
O406       Cu408   2.007       .  S
O406        C409   1.277       .  A
Cu407      Cu408   2.373       .  S
C409        C725   1.475       .  S
C410        C515   1.474       .  S
C411        C595   1.474       .  S
C412        C605   1.485       .  S
O413       Cu421   2.003       .  S
O413        C423   1.276       .  A
O414       Cu421   2.000       .  S
O414        C424   1.275       .  A
O415       Cu421   2.017       .  S
O415        C425   1.279       .  A
O416       Cu421   2.028       .  S
O416        C426   1.281       .  A
O417       Cu422   2.004       .  S
O417        C426   1.275       .  A
O418       Cu422   2.003       .  S
O418        C425   1.276       .  A
O419       Cu422   2.023       .  S
O419        C424   1.280       .  A
O420       Cu422   2.019       .  S
O420        C423   1.280       .  A
Cu421      Cu422   2.370       .  S
C423        C685   1.483       .  S
C424        C442   1.489       .  S
C425        C522   1.489       .  S
C426        C672   1.477       .  S
O427       Cu435   2.010       .  S
O427        C437   1.278       .  A
O428       Cu435   2.007       .  S
O428        C438   1.278       .  A
O429       Cu435   2.005       .  S
O429        C439   1.276       .  A
O430       Cu435   1.997       .  S
O430        C440   1.276       .  A
O431       Cu436   2.017       .  S
O431        C440   1.279       .  A
O432       Cu436   2.006       .  S
O432        C439   1.278       .  A
O433       Cu436   2.001       .  S
O433        C438   1.277       .  A
O434       Cu436   2.006       .  S
O434        C437   1.276       .  A
Cu435      Cu436   2.374       .  S
C437        C702   1.473       .  S
C438        C465   1.483       .  S
C439        C542   1.478       .  S
C440        C645   1.477       .  S
C441        C442   1.414       .  A
C441        C446   1.408       .  A
C441       Br448   1.926       .  S
C442        C443   1.419       .  A
C443        C444   1.409       .  A
C443       Br450   1.937       .  S
C444        C445   1.409       .  A
C444       Br449   1.933       .  S
C445        C446   1.410       .  A
C446       Br447   1.934       .  S
C451        C452   1.414   1_455  A
C451        C456   1.411       .  A
C451       Br458   1.933   1_455  S
C452        C453   1.412   1_655  A
C453        C454   1.407       .  A
C453       Br460   1.932   1_455  S
C454        C455   1.410       .  A
C454       Br459   1.932       .  S
C455        C456   1.413       .  A
C456       Br457   1.933       .  S
C461        C462   1.412       .  A
C461        C466   1.409       .  A
C461       Br468   1.932       .  S
C462        C463   1.410       .  A
C463        C464   1.407       .  A
C463       Br470   1.934       .  S
C464        C465   1.416       .  A
C464       Br469   1.936       .  S
C465        C466   1.414       .  A
C466       Br467   1.933       .  S
C471        C472   1.415       .  A
C471        C476   1.414       .  A
C471       Br478   1.931       .  S
C472        C473   1.415       .  A
C473        C474   1.404       .  A
C473       Br480   1.936       .  S
C474        C475   1.414       .  A
C474       Br479   1.936       .  S
C475        C476   1.414       .  A
C476       Br477   1.931       .  S
C481        C482   1.417       .  A
C481        C486   1.409       .  A
C481       Br488   1.935       .  S
C482        C483   1.418       .  A
C483        C484   1.408       .  A
C483       Br490   1.930       .  S
C484        C485   1.409       .  A
C484       Br489   1.935       .  S
C485        C486   1.410       .  A
C486       Br487   1.933       .  S
C491        C492   1.415       .  A
C491        C496   1.412       .  A
C491       Br498   1.932       .  S
C492        C493   1.415       .  A
C493        C494   1.404       .  A
C493       Br500   1.936       .  S
C494        C495   1.414       .  A
C494       Br499   1.936       .  S
C495        C496   1.413       .  A
C496       Br497   1.931       .  S
C501        C502   1.413   1_455  A
C501        C506   1.409       .  A
C501       Br508   1.933   1_455  S
C502        C503   1.412   1_655  A
C503        C504   1.409       .  A
C503       Br510   1.931   1_455  S
C504        C505   1.411       .  A
C504       Br509   1.931       .  S
C505        C506   1.412       .  A
C506       Br507   1.933       .  S
C511        C512   1.410       .  A
C511        C516   1.408       .  A
C511       Br518   1.930       .  S
C512        C513   1.408       .  A
C513        C514   1.406       .  A
C513       Br520   1.931       .  S
C514        C515   1.412       .  A
C514       Br519   1.933       .  S
C515        C516   1.409       .  A
C516       Br517   1.930       .  S
C521        C522   1.418       .  A
C521        C526   1.409       .  A
C521       Br528   1.934       .  S
C522        C523   1.417       .  A
C523        C524   1.407       .  A
C523       Br530   1.928       .  S
C524        C525   1.408       .  A
C524       Br529   1.934       .  S
C525        C526   1.408       .  A
C526       Br527   1.932       .  S
C531        C532   1.411   1_455  A
C531        C536   1.406       .  A
C531       Br538   1.933   1_455  S
C532        C533   1.410   1_655  A
C533        C534   1.409       .  A
C533       Br540   1.930   1_455  S
C534        C535   1.411       .  A
C534       Br539   1.930       .  S
C535        C536   1.411       .  A
C536       Br537   1.933       .  S
C541        C542   1.410       .  A
C541        C546   1.407       .  A
C541       Br548   1.933       .  S
C542        C543   1.412       .  A
C543        C544   1.408       .  A
C543       Br550   1.935       .  S
C544        C545   1.414       .  A
C544       Br549   1.933       .  S
C545        C546   1.414       .  A
C546       Br547   1.933       .  S
C551        C552   1.407       .  A
C551        C556   1.410       .  A
C551       Br558   1.929   1_565  S
C552        C553   1.407       .  A
C553        C554   1.407       .  A
C553       Br560   1.931       .  S
C554        C555   1.413       .  A
C554       Br559   1.931   1_556  S
C555        C556   1.414       .  A
C556       Br557   1.929   1_565  S
C561        C562   1.409       .  A
C561        C566   1.408       .  A
C561       Br568   1.933       .  S
C562        C563   1.408       .  A
C563        C564   1.408       .  A
C563       Br570   1.934       .  S
C564        C565   1.419       .  A
C564       Br569   1.936       .  S
C565        C566   1.413       .  A
C566       Br567   1.926       .  S
C571        C572   1.415       .  A
C571        C576   1.410       .  A
C571       Br578   1.929       .  S
C572        C573   1.414       .  A
C573        C574   1.404       .  A
C573       Br580   1.933   1_565  S
C574        C575   1.406       .  A
C574       Br579   1.932   1_565  S
C575        C576   1.406       .  A
C576       Br577   1.929   1_556  S
C581        C582   1.410   1_455  A
C581        C586   1.408       .  A
C581       Br588   1.929   1_455  S
C582        C583   1.411   1_655  A
C583        C584   1.405       .  A
C583       Br590   1.932   1_455  S
C584        C585   1.408       .  A
C584       Br589   1.931       .  S
C585        C586   1.408       .  A
C586       Br587   1.928       .  S
C591        C592   1.416       .  A
C591        C596   1.407       .  A
C591       Br598   1.933       .  S
C592        C593   1.412       .  A
C593        C594   1.407       .  A
C593       Br600   1.933       .  S
C594        C595   1.412       .  A
C594       Br599   1.934       .  S
C595        C596   1.408       .  A
C596       Br597   1.933       .  S
C601        C602   1.408       .  A
C601        C606   1.406       .  A
C601       Br608   1.934       .  S
C602        C603   1.412       .  A
C603        C604   1.409       .  A
C603       Br610   1.932       .  S
C604        C605   1.415       .  A
C604       Br609   1.933       .  S
C605        C606   1.418       .  A
C606       Br607   1.936       .  S
C611        C612   1.418       .  A
C611        C616   1.410       .  A
C611       Br618   1.932       .  S
C612        C613   1.414       .  A
C613        C614   1.407       .  A
C613       Br620   1.932       .  S
C614        C615   1.409       .  A
C614       Br619   1.933       .  S
C615        C616   1.409       .  A
C616       Br617   1.933       .  S
C621        C622   1.412       .  A
C621        C626   1.409       .  A
C621       Br628   1.933       .  S
C622        C623   1.412       .  A
C623        C624   1.409       .  A
C623       Br630   1.934       .  S
C624        C625   1.416       .  A
C624       Br629   1.930       .  S
C625        C626   1.416       .  A
C626       Br627   1.935       .  S
C631        C632   1.411       .  A
C631        C636   1.404       .  A
C631       Br638   1.932       .  S
C632        C633   1.413       .  A
C633        C634   1.409       .  A
C633       Br640   1.929       .  S
C634        C635   1.407       .  A
C634       Br639   1.929       .  S
C635        C636   1.407       .  A
C636       Br637   1.931       .  S
C641        C642   1.407       .  A
C641        C646   1.405       .  A
C641       Br648   1.932       .  S
C642        C643   1.411       .  A
C643        C644   1.409       .  A
C643       Br650   1.930       .  S
C644        C645   1.410       .  A
C644       Br649   1.929       .  S
C645        C646   1.414       .  A
C646       Br647   1.933       .  S
C651        C652   1.415       .  A
C651        C656   1.415       .  A
C651       Br658   1.930       .  S
C652        C653   1.413       .  A
C653        C654   1.403       .  A
C653       Br660   1.936       .  S
C654        C655   1.415       .  A
C654       Br659   1.936       .  S
C655        C656   1.416       .  A
C656       Br657   1.930       .  S
C661        C662   1.415       .  A
C661        C666   1.411       .  A
C661       Br668   1.932       .  S
C662        C663   1.411       .  A
C663        C664   1.407       .  A
C663       Br670   1.932       .  S
C664        C665   1.410       .  A
C664       Br669   1.932       .  S
C665        C666   1.412       .  A
C666       Br667   1.932       .  S
C671        C672   1.412       .  A
C671        C676   1.408       .  A
C671       Br678   1.928       .  S
C672        C673   1.407       .  A
C673        C674   1.406       .  A
C673       Br680   1.918       .  S
C674        C675   1.408       .  A
C674       Br679   1.931       .  S
C675        C676   1.407       .  A
C676       Br677   1.930       .  S
C681        C682   1.408       .  A
C681        C686   1.407       .  A
C681       Br688   1.933       .  S
C682        C683   1.407       .  A
C683        C684   1.408       .  A
C683       Br690   1.931       .  S
C684        C685   1.416       .  A
C684       Br689   1.933       .  S
C685        C686   1.414       .  A
C686       Br687   1.925       .  S
C691        C692   1.412       .  A
C691        C696   1.406       .  A
C691       Br698   1.934       .  S
C692        C693   1.411       .  A
C693        C694   1.410       .  A
C693       Br700   1.930       .  S
C694        C695   1.411       .  A
C694       Br699   1.930       .  S
C695        C696   1.411       .  A
C696       Br697   1.933       .  S
C701        C702   1.406       .  A
C701        C706   1.407       .  A
C701       Br708   1.930       .  S
C702        C703   1.410       .  A
C703        C704   1.408       .  A
C703       Br710   1.931       .  S
C704        C705   1.412       .  A
C704       Br709   1.931       .  S
C705        C706   1.415       .  A
C706       Br707   1.932       .  S
C711        C712   1.406       .  A
C711        C716   1.405       .  A
C711       Br718   1.932       .  S
C712        C713   1.406       .  A
C713        C714   1.410       .  A
C713       Br720   1.930       .  S
C714        C715   1.417       .  A
C714       Br719   1.929   1_565  S
C715        C716   1.415       .  A
C716       Br717   1.933       .  S
C721        C722   1.412       .  A
C721        C726   1.407       .  A
C721       Br728   1.932       .  S
C722        C723   1.414       .  A
C723        C724   1.408       .  A
C723       Br730   1.932       .  S
C724        C725   1.408       .  A
C724       Br729   1.932       .  S
C725        C726   1.412       .  A
C726       Br727   1.933       .  S
C731        C732   1.416       .  A
C731        C736   1.411       .  A
C731       Br738   1.929       .  S
C732        C733   1.414       .  A
C733        C734   1.405       .  A
C733       Br740   1.933   1_565  S
C734        C735   1.407       .  A
C734       Br739   1.932   1_565  S
C735        C736   1.407       .  A
C736       Br737   1.929       .  S
C741        C742   1.409       .  A
C741        C746   1.409       .  A
C741       Br748   1.931       .  S
C742        C743   1.408       .  A
C743        C744   1.406       .  A
C743       Br750   1.931       .  S
C744        C745   1.410       .  A
C744       Br749   1.930       .  S
C745        C746   1.413       .  A
C746       Br747   1.931       .  S
C751        C752   1.408       .  A
C751        C756   1.407       .  A
C751       Br758   1.931       .  S
C752        C753   1.405       .  A
C753        C754   1.407       .  A
C753       Br760   1.930       .  S
C754        C755   1.413       .  A
C754       Br759   1.929       .  S
C755        C756   1.408       .  A
C756       Br757   1.921       .  S
