geometry optimzed in LAMMPS
_audit_creation_date              2020-11-30 
_audit_creation_method            'lammps2cif' 
_symmetry_space_group_name_H-M    'P1' 
_symmetry_Int_Tables_number       1 
_symmetry_cell_setting            triclinic 
loop_ 
_symmetry_equiv_pos_as_xyz 
  x,y,z 
_cell_length_a                    45.88557012 
_cell_length_b                    35.297744346427606 
_cell_length_c                    40.97207593031813 
_cell_angle_alpha                 89.85196012626635 
_cell_angle_beta                  90.69051177748726 
_cell_angle_gamma                 89.77150988749052 
loop_ 
_atom_site_label 
_atom_site_type_symbol 
_atom_site_fract_x 
_atom_site_fract_y 
_atom_site_fract_z 
_atom_site_charge 
N1          N  0.01613980  0.09894060  0.02399565    -0.35700
N2          N  0.03508634  0.05965496  0.08062761    -0.56300
N3          N  0.08007099  0.01726439  0.04349872    -0.35700
N4          N  0.06471591  0.05514855  0.98614368    -0.56300
C5          C  0.99234030  0.10634503  0.04238141     0.27800
C6          C  0.50845873  0.10383551  0.99055624     0.27800
C7          C  0.09148362  0.01421326  0.07379521     0.27800
C8          C  0.09789696  0.99863956  0.02270758     0.27800
C9          C  0.00880960  0.07008872  0.09218707     0.36500
C10         C  0.05049949  0.04359340  0.10515865     0.36500
C11         C  0.04511754  0.06963302  0.46552415     0.36500
C12         C  0.08282775  0.03055690  0.97139617     0.36500
C13         C  0.47008638  0.12149300  0.01917673    -0.21000
C14         C  0.48076504  0.11917677  0.98804011    -0.21000
C15         C  0.11655504  0.99188010  0.07247259    -0.21000
C16         C  0.12023312  0.98148188  0.04028305    -0.21000
C17         C  0.00712614  0.05972243  0.12472034    -0.22100
C18         C  0.03380220  0.04384797  0.13318489    -0.22100
C19         C  0.05356438  0.05700358  0.43511290    -0.22100
C20         C  0.07587690  0.03135593  0.44003226    -0.22100
C21         C  0.98672793  0.08931807  0.07374251    -0.17400
C22         C  0.01690234  0.07432250  0.96976981    -0.17400
C23         C  0.09526542  0.99862197  0.98817024    -0.17400
C24         C  0.07981178  0.03082302  0.10252922    -0.17400
H25         H  0.44756078  0.12776854  0.02408971     0.15500
H26         H  0.46767687  0.12148811  0.96595045     0.15500
H27         H  0.13050307  0.98321641  0.09265432     0.15500
H28         H  0.13808974  0.96490522  0.03074260     0.15500
H29         H  0.98901035  0.06427461  0.14092896     0.13800
H30         H  0.03965286  0.03270646  0.15698552     0.13800
H31         H  0.04158884  0.06078570  0.41240112     0.13800
H32         H  0.08455147  0.01384495  0.42091847     0.13800
H33         H  0.03546953  0.08599742  0.03092618     0.27000
H34         H  0.06050942  0.03036916  0.03782858     0.27000
N35         N  0.49708002  0.98146819  0.43799616    -0.35700
N36         N  0.44878271  0.02383059  0.97064263    -0.56300
N37         N  0.40788840  0.95494381  0.45687079    -0.35700
N38         N  0.45387768  0.92452120  0.41798810    -0.56300
C39         C  0.51095419  0.00688232  0.95563310     0.27800
C40         C  0.50780728  0.94682457  0.44486927     0.27800
C41         C  0.39401321  0.97966280  0.97163985     0.27800
C42         C  0.39143478  0.94133857  0.43198119     0.27800
C43         C  0.47453162  0.03663029  0.98198263     0.36500
C44         C  0.43497271  0.01076128  0.99720410     0.36500
C45         C  0.47879985  0.90642779  0.40997249     0.36500
C46         C  0.43159067  0.90545329  0.40430683     0.36500
C47         C  0.02621154  0.98633116  0.97972825    -0.21000
C48         C  0.02462265  0.94930825  0.47121531    -0.21000
C49         C  0.36333742  0.97950708  0.46256431    -0.21000
C50         C  0.36336764  0.95629126  0.43507604    -0.21000
C51         C  0.47777744  0.02839814  0.01497847    -0.22100
C52         C  0.45223910  0.01314003  0.02486401    -0.22100
C53         C  0.47277600  0.87556572  0.39052867    -0.22100
C54         C  0.44275167  0.87488646  0.38680536    -0.22100
C55         C  0.49847459  0.04217291  0.96191826    -0.17400
C56         C  0.50578739  0.91609568  0.42399546    -0.17400
C57         C  0.40163179  0.91595572  0.40721305    -0.17400
C58         C  0.40551875  0.00209105  0.99714335    -0.17400
H59         H  0.03472519  0.99709210  0.00236951     0.15500
H60         H  0.03554612  0.92583352  0.48319795     0.15500
H61         H  0.34648347  0.98886275  0.97303678     0.15500
H62         H  0.34481912  0.95176891  0.41907915     0.15500
H63         H  0.49743815  0.03019693  0.02965268     0.13800
H64         H  0.44742096  0.00284740  0.04905540     0.13800
H65         H  0.48812666  0.85494783  0.38134664     0.13800
H66         H  0.43061493  0.85326463  0.37390193     0.13800
H67         H  0.48347391  0.98926134  0.41845484     0.27000
H68         H  0.42921020  0.94737616  0.46298035     0.27000
O69         O  0.44469341  0.39936055  0.13408826    -0.57000
C70         C  0.35965310  0.40000952  0.15427040     0.75700
O71         O  0.39511662  0.42236620  0.04786513    -0.58100
C72         C  0.46181860  0.38921460  0.11179798     0.75600
C73         C  0.38210400  0.30873382  0.08934593     0.78000
Cd74       Cd  0.39946137  0.38600038  0.10210058     1.37500
O75         O  0.38704673  0.40184623  0.15841970    -0.56900
O76         O  0.39040268  0.32051829  0.11702711    -0.55800
C77         C  0.39423847  0.45482172  0.06110062     0.78000
O78         O  0.38235984  0.33285072  0.06630475    -0.58100
O79         O  0.35085615  0.39210017  0.12567826    -0.56600
O80         O  0.45068041  0.37015710  0.08876112    -0.56600
O81         O  0.39230969  0.45411224  0.09172892    -0.55700
O82         O  0.38172096  0.04878927  0.13611432    -0.57000
C83         C  0.45516377  0.08660246  0.08207499     0.75700
O84         O  0.38328769  0.05638814  0.02060642    -0.58100
C85         C  0.35548929  0.04025548  0.12933288     0.75600
C86         C  0.36942818  0.14811017  0.07590775     0.78000
Cd87       Cd  0.39178842  0.07192246  0.07951104     1.37500
O88         O  0.44513238  0.05503822  0.09146963    -0.56900
O89         O  0.37167220  0.12956469  0.10231861    -0.55800
C90         C  0.38971282  0.02159273  0.02346588     0.78000
O91         O  0.37438388  0.12977059  0.04996434    -0.58100
O92         O  0.43629996  0.11211708  0.07744976    -0.56600
O93         O  0.34723088  0.04579321  0.10012999    -0.56600
O94         O  0.39168212  0.00901987  0.05232375    -0.55700
N95         N  0.99466622  0.47688117  0.09659875    -0.35700
N96         N  0.03969270  0.42114458  0.11330255    -0.56300
N97         N  0.08439829  0.45717992  0.07595019    -0.35700
N98         N  0.04334316  0.52050145  0.05875690    -0.56300
C99         C  0.98372531  0.44234147  0.08954431     0.27800
C100        C  0.98218546  0.50107597  0.07502050     0.27800
C101        C  0.10129868  0.44385133  0.10064634     0.27800
C102        C  0.10001009  0.48232337  0.05839357     0.27800
C103        C  0.01576698  0.40104527  0.12118913     0.36500
C104        C  0.06293169  0.40371619  0.12697999     0.36500
C105        C  0.01806385  0.53643355  0.55067424     0.36500
C106        C  0.05861209  0.51336328  0.53473090     0.36500
C107        C  0.46689451  0.44391057  0.05947507    -0.21000
C108        C  0.46767886  0.48032606  0.04864880    -0.21000
C109        C  0.12869202  0.46064157  0.09812980    -0.21000
C110        C  0.12795701  0.48448003  0.07097453    -0.21000
C111        C  0.02344742  0.37018889  0.14019323    -0.22100
C112        C  0.05342888  0.37197352  0.14416342    -0.22100
C113        C  0.01513741  0.52932621  0.51750179    -0.22100
C114        C  0.04121493  0.51584674  0.50722010    -0.22100
C115        C  0.98808307  0.40963797  0.10816062    -0.17400
C116        C  0.99317499  0.53692032  0.06766008    -0.17400
C117        C  0.08752797  0.50272102  0.03209493    -0.17400
C118        C  0.09223444  0.41692905  0.12466055    -0.17400
H119        H  0.45633252  0.42060257  0.04709934     0.15500
H120        H  0.45943078  0.48992247  0.02540154     0.15500
H121        H  0.14728728  0.45677380  0.11424908     0.15500
H122        H  0.14540630  0.50236489  0.06247029     0.15500
H123        H  0.00917738  0.34843236  0.14946760     0.13800
H124        H  0.06669565  0.35145462  0.15728972     0.13800
H125        H  0.99539114  0.53044302  0.50292035     0.13800
H126        H  0.04638369  0.50660569  0.48285027     0.13800
H127        H  0.00931646  0.48391858  0.11531305     0.27000
H128        H  0.06343370  0.44856655  0.06957069     0.27000
N129        N  0.47345289  0.60145204  0.51023711    -0.35700
N130        N  0.45752552  0.56150225  0.45290552    -0.56300
N131        N  0.41105067  0.52118834  0.48855567    -0.35700
N132        N  0.42739918  0.54945044  0.04360648    -0.56300
C133        C  0.49777547  0.60941589  0.49281822     0.27800
C134        C  0.48339460  0.59794378  0.03562920     0.27800
C135        C  0.40135482  0.51678510  0.45757904     0.27800
C136        C  0.39697910  0.49078797  0.00767440     0.27800
C137        C  0.48332541  0.57434261  0.44194740     0.36500
C138        C  0.44235589  0.54759846  0.42733025     0.36500
C139        C  0.44549745  0.56533949  0.06568715     0.36500
C140        C  0.41109372  0.52341069  0.05905201     0.36500
C141        C  0.01802498  0.62365242  0.51472202    -0.21000
C142        C  0.00705151  0.61537830  0.03982281    -0.21000
C143        C  0.37805005  0.49166034  0.45768728    -0.21000
C144        C  0.37386382  0.48055965  0.48963485    -0.21000
C145        C  0.48533029  0.56701187  0.40890387    -0.22100
C146        C  0.45914399  0.55089955  0.39945194    -0.22100
C147        C  0.43747567  0.55356823  0.09650718    -0.22100
C148        C  0.41550239  0.52752559  0.09254234    -0.22100
C149        C  0.50442753  0.59387797  0.46117923    -0.17400
C150        C  0.47504685  0.56976409  0.05803198    -0.17400
C151        C  0.39907975  0.49127791  0.04248150    -0.17400
C152        C  0.41319219  0.53402553  0.42908218    -0.17400
H153        H  0.04001804  0.63232395  0.50969102     0.15500
H154        H  0.01982748  0.61949088  0.06190411     0.15500
H155        H  0.36591376  0.48122810  0.43678547     0.15500
H156        H  0.35891643  0.45359897  0.99975686     0.15500
H157        H  0.50318123  0.57409621  0.39300893     0.13800
H158        H  0.45373042  0.54191006  0.37494557     0.13800
H159        H  0.44946178  0.55841817  0.11902779     0.13800
H160        H  0.40661707  0.51143473  0.11243799     0.13800
H161        H  0.45441751  0.58873947  0.50236050     0.27000
H162        H  0.42912564  0.53664598  0.49532017     0.27000
O163        O  0.05175923  0.91369192  0.39799471    -0.57000
C164        C  0.13918959  0.91335890  0.38091262     0.75700
O165        O  0.09205704  0.92868929  0.48334742    -0.58100
C166        C  0.03382048  0.89876699  0.41738065     0.75600
C167        C  0.11360502  0.81749723  0.44189993     0.78000
Cd168      Cd  0.09661497  0.89514611  0.42946287     1.37500
O169        O  0.11218790  0.91015776  0.37429432    -0.56900
O170        O  0.10529371  0.82958734  0.41423820    -0.55800
C171        C  0.09877538  0.96111763  0.47241785     0.78000
O172        O  0.11439672  0.84166999  0.46479295    -0.58100
O173        O  0.14662210  0.90796627  0.41043758    -0.56600
O174        O  0.04462120  0.87669062  0.43866458    -0.56600
O175        O  0.10828097  0.96152066  0.44370036    -0.55700
O176        O  0.10936076  0.55317304  0.39438903    -0.57000
C177        C  0.03531685  0.58933864  0.45198333     0.75700
O178        O  0.10835452  0.56251529  0.51090070    -0.58100
C179        C  0.13602232  0.54543298  0.40008475     0.75600
C180        C  0.11904716  0.65512117  0.45383523     0.78000
Cd181      Cd  0.09950058  0.57739251  0.45144529     1.37500
O182        O  0.04636165  0.55873252  0.44157508    -0.56900
O183        O  0.11681816  0.63690957  0.42732869    -0.55800
C184        C  0.10352695  0.52734214  0.50822337     0.78000
O185        O  0.11527096  0.63607011  0.47969956    -0.58100
O186        O  0.05338295  0.61554534  0.45680710    -0.56600
O187        O  0.14494435  0.55205095  0.42888666    -0.56600
O188        O  0.10253241  0.51467329  0.47942751    -0.55700
N189        N  0.21885655  0.84687764  0.27562092    -0.35700
N190        N  0.17037879  0.89454621  0.23785916    -0.56300
N191        N  0.15995099  0.93433732  0.29538132    -0.35700
N192        N  0.20362949  0.88886679  0.33216561    -0.56300
C193        C  0.22559905  0.84327147  0.24381255     0.27800
C194        C  0.24329618  0.83907597  0.29355471     0.27800
C195        C  0.14313606  0.95556461  0.27482396     0.27800
C196        C  0.15006662  0.93928340  0.32594371     0.27800
C197        C  0.18668667  0.87766712  0.21487201     0.36500
C198        C  0.15383568  0.92158801  0.22322987     0.36500
C199        C  0.22930719  0.87527649  0.34374402     0.36500
C200        C  0.18903169  0.90422472  0.35722935     0.36500
C201        C  0.25247546  0.82568451  0.24154597    -0.21000
C202        C  0.26369857  0.82293297  0.27271410    -0.21000
C203        C  0.12359562  0.97659708  0.29284550    -0.21000
C204        C  0.12746003  0.96565794  0.32503866    -0.21000
C205        C  0.17703925  0.89002790  0.18450981    -0.22100
C206        C  0.15632489  0.91763782  0.18960160    -0.22100
C207        C  0.23168887  0.88319922  0.37673105    -0.22100
C208        C  0.20581215  0.90053379  0.38551206    -0.22100
C209        C  0.21664077  0.87107367  0.22092417    -0.17400
C210        C  0.25015403  0.85518090  0.32495333    -0.17400
C211        C  0.16060412  0.92041568  0.35454934    -0.17400
C212        C  0.14358248  0.95442782  0.24016073    -0.17400
H213        H  0.26495531  0.82200548  0.21950489     0.15500
H214        H  0.28600102  0.81496707  0.27781353     0.15500
H215        H  0.10716700  0.99604760  0.28357201     0.15500
H216        H  0.11524615  0.97633909  0.34551891     0.15500
H217        H  0.18755274  0.88470091  0.16144540     0.13800
H218        H  0.14734932  0.93516858  0.17036149     0.13800
H219        H  0.24966834  0.87598365  0.39294885     0.13800
H220        H  0.20064437  0.91045003  0.40970925     0.13800
H221        H  0.19996298  0.86023499  0.28301673     0.27000
H222        H  0.17784103  0.91818181  0.28922263     0.27000
N223        N  0.23844283  0.95991947  0.18017576    -0.35700
N224        N  0.28839224  0.91996318  0.22080293    -0.56300
N225        N  0.32763099  0.98436646  0.20203541    -0.35700
N226        N  0.28220177  0.01653157  0.16153457    -0.56300
C227        C  0.22757883  0.93795950  0.20399882     0.27800
C228        C  0.22727619  0.99473629  0.18537057     0.27800
C229        C  0.34422284  0.96124790  0.22106807     0.27800
C230        C  0.34454942  0.99920270  0.17850879     0.27800
C231        C  0.26284664  0.90728167  0.23229538     0.36500
C232        C  0.30283694  0.93328687  0.24717686     0.36500
C233        C  0.25766127  0.03537753  0.15262418     0.36500
C234        C  0.30488908  0.03576863  0.14939706     0.36500
C235        C  0.21221210  0.95986924  0.22588983    -0.21000
C236        C  0.21099633  0.99543295  0.21345637    -0.21000
C237        C  0.37267406  0.96196529  0.21066274    -0.21000
C238        C  0.37286379  0.98546805  0.18334388    -0.21000
C239        C  0.26041415  0.91589124  0.26518903    -0.22100
C240        C  0.28618979  0.93121661  0.27483886    -0.22100
C241        C  0.26434545  0.06683433  0.13422149    -0.22100
C242        C  0.29438261  0.06705846  0.13195369    -0.22100
C243        C  0.23830719  0.90225309  0.21235406    -0.17400
C244        C  0.23027204  0.02579582  0.16480513    -0.17400
C245        C  0.33471687  0.02499844  0.15362038    -0.17400
C246        C  0.33250484  0.94060625  0.24721966    -0.17400
H247        H  0.20479043  0.95170038  0.24974893     0.15500
H248        H  0.20129725  0.01972399  0.22511646     0.15500
H249        H  0.39100609  0.94646647  0.22094350     0.15500
H250        H  0.39182315  0.99128723  0.16880771     0.15500
H251        H  0.24100153  0.91492910  0.27979715     0.13800
H252        H  0.29163550  0.94180631  0.29885276     0.13800
H253        H  0.24936748  0.08794792  0.12459213     0.13800
H254        H  0.30699573  0.08877092  0.12000274     0.13800
H255        H  0.25204047  0.95133399  0.16128212     0.27000
H256        H  0.30593362  0.99078506  0.20670971     0.27000
O257        O  0.13984622  0.39614233  0.14439939    -0.57000
C258        C  0.21350269  0.35828103  0.20304810     0.75700
O259        O  0.14025882  0.38380631  0.25989771    -0.58100
C260        C  0.11320742  0.40315169  0.14997155     0.75600
C261        C  0.12822916  0.29678008  0.20103589     0.78000
Cd262      Cd  0.14965956  0.37250458  0.20114140     1.37500
O263        O  0.20360117  0.38791443  0.18907786    -0.56900
O264        O  0.13696850  0.31298192  0.17538414    -0.55800
C265        C  0.14358067  0.41935886  0.25888967     0.78000
O266        O  0.12692359  0.31689027  0.22654207    -0.58100
O267        O  0.19428805  0.33534551  0.21210816    -0.56600
O268        O  0.10473678  0.39726588  0.17878145    -0.56600
O269        O  0.14449077  0.43399070  0.23068566    -0.55700
O270        O  0.12726612  0.04522203  0.12328325    -0.57000
C271        C  0.20320618  0.04801689  0.16121404     0.75700
O272        O  0.13050720  0.11220844  0.21368580    -0.58100
C273        C  0.10064724  0.03930219  0.12938870     0.75600
C274        C  0.13859382  0.99075379  0.22164879     0.78000
Cd275      Cd  0.14263159  0.05696252  0.17829895     1.37500
O276        O  0.18283610  0.03504342  0.14360269    -0.56900
O277        O  0.12968443  0.99112540  0.19246849    -0.55800
C278        C  0.12778341  0.13522616  0.18999530     0.78000
O279        O  0.14601873  0.02280243  0.23294759    -0.58100
O280        O  0.19589413  0.07139862  0.18298880    -0.56600
O281        O  0.09303253  0.04295595  0.15885195    -0.56600
O282        O  0.13154091  0.12160421  0.16190278    -0.55700
N283        N  0.25200776  0.46489397  0.34786822    -0.35700
N284        N  0.20252462  0.41830660  0.31416969    -0.56300
N285        N  0.16302363  0.48517802  0.32891692    -0.35700
N286        N  0.20872996  0.52313797  0.36299405    -0.56300
C287        C  0.26445202  0.43877516  0.32858397     0.27800
C288        C  0.26379214  0.49835178  0.33941634     0.27800
C289        C  0.14639890  0.46136867  0.31094254     0.27800
C290        C  0.14620273  0.50253397  0.35133930     0.27800
C291        C  0.22849436  0.40588035  0.30335681     0.36500
C292        C  0.18811117  0.43050370  0.28721177     0.36500
C293        C  0.23350181  0.54217631  0.37005324     0.36500
C294        C  0.18632875  0.54125860  0.37719190     0.32100
C295        C  0.28213774  0.45634888  0.30596716    -0.21000
C296        C  0.28261538  0.49380405  0.31357550    -0.21000
C297        C  0.11781536  0.46405782  0.32074684    -0.21000
C298        C  0.11771345  0.48947451  0.34679163    -0.21000
C299        C  0.23106950  0.41415634  0.27032946    -0.22100
C300        C  0.20513083  0.42817738  0.25987387    -0.22100
C301        C  0.22722562  0.57330256  0.38902033    -0.22100
C302        C  0.19732991  0.57261888  0.39384492    -0.22100
C303        C  0.25307248  0.40264085  0.32366536    -0.17400
C304        C  0.26065892  0.53187865  0.35693926    -0.17400
C305        C  0.15640118  0.52964548  0.37506446    -0.17400
C306        C  0.15843870  0.43835996  0.28639167    -0.17400
H307        H  0.29143323  0.44410880  0.28429674     0.15500
H308        H  0.29418735  0.51551944  0.30041378     0.15500
H309        H  0.09935052  0.44857009  0.31105104     0.15500
H310        H  0.09865333  0.49712681  0.36055690     0.15500
H311        H  0.25056834  0.41468622  0.25596226     0.13800
H312        H  0.19993311  0.43798054  0.23547213     0.13800
H313        H  0.24236762  0.59443166  0.39789840     0.13800
H314        H  0.18511212  0.59368676  0.40712899     0.13800
H315        H  0.23712853  0.45963088  0.36642157     0.27000
H316        H  0.18484156  0.48987818  0.32401451     0.27000
N317        N  0.27358867  0.35042196  0.26350532    -0.35700
N318        N  0.29492636  0.37655422  0.20424710    -0.56300
N319        N  0.34291668  0.41403834  0.24198138    -0.35700
N320        N  0.32175331  0.38778970  0.30262402    -0.56300
C321        C  0.25183964  0.33725035  0.24405985     0.27800
C322        C  0.26704100  0.34298169  0.29473009     0.27800
C323        C  0.35011357  0.42234448  0.21089269     0.27800
C324        C  0.35496798  0.44086186  0.26191815     0.27800
C325        C  0.26752588  0.36946555  0.19328158     0.36500
C326        C  0.31043555  0.39029835  0.17930549     0.36500
C327        C  0.30385910  0.37551577  0.32620219     0.36500
C328        C  0.34028748  0.41324096  0.31568797     0.36500
C329        C  0.23304384  0.31637495  0.26356143    -0.21000
C330        C  0.24233214  0.32083275  0.29547828    -0.21000
C331        C  0.36810784  0.45374155  0.21084389    -0.21000
C332        C  0.37071112  0.46581286  0.24278308    -0.21000
C333        C  0.26547252  0.37887749  0.16053783    -0.22100
C334        C  0.29280204  0.39133953  0.15147122    -0.22100
C335        C  0.31355571  0.38935118  0.35586771    -0.22100
C336        C  0.33697414  0.41242961  0.34949870    -0.22100
C337        C  0.24519754  0.35283998  0.21244499    -0.17400
C338        C  0.27409502  0.36949857  0.31907989    -0.17400
C339        C  0.35228865  0.44356239  0.29674281    -0.17400
C340        C  0.33948272  0.40398131  0.18222452    -0.17400
H341        H  0.21311051  0.30224491  0.25667586     0.15500
H342        H  0.23013116  0.31306591  0.31690881     0.15500
H343        H  0.37722677  0.46769924  0.18977072     0.15500
H344        H  0.38337996  0.48986081  0.25088795     0.15500
H345        H  0.24657363  0.37624081  0.14467299     0.13800
H346        H  0.29821301  0.40206676  0.12757909     0.13800
H347        H  0.30248640  0.38721522  0.37897910     0.13800
H348        H  0.34795652  0.42894683  0.36797022     0.13800
H349        H  0.28745860  0.37223467  0.25805428     0.27000
H350        H  0.33183105  0.38983680  0.24822213     0.27000
O351        O  0.36554888  0.54392367  0.40581717    -0.57000
C352        C  0.28861899  0.55185763  0.36134331     0.75700
O353        O  0.36357729  0.60662225  0.31022938    -0.58100
C354        C  0.39271218  0.54072398  0.40109631     0.75600
C355        C  0.35588872  0.48201665  0.31279673     0.78000
Cd356      Cd  0.35092887  0.55405047  0.34941437     1.37500
O357        O  0.30696578  0.53945929  0.38205065    -0.56900
O358        O  0.35891733  0.48544867  0.34319922    -0.55800
C359        C  0.36485689  0.63158778  0.33247256     0.78000
O360        O  0.35313074  0.51328582  0.29760384    -0.58100
O361        O  0.29883649  0.57141725  0.33832086    -0.56600
O362        O  0.40096069  0.54527508  0.37193330    -0.56600
O363        O  0.36051336  0.62006839  0.36124787    -0.55700
O364        O  0.35468571  0.89369494  0.38699234    -0.57000
C365        C  0.28182871  0.85895440  0.33402906     0.75700
O366        O  0.35233364  0.88477474  0.27104486    -0.58100
C367        C  0.38125631  0.90105794  0.38177545     0.75600
C368        C  0.36706314  0.79387272  0.32392197     0.78000
Cd369      Cd  0.34531932  0.87041319  0.33007813     1.37500
O370        O  0.29313008  0.89056978  0.34116992    -0.56900
O371        O  0.36537986  0.81110003  0.35089706    -0.55800
C372        C  0.34824382  0.92011331  0.27347898     0.78000
O373        O  0.36086860  0.81325113  0.29867376    -0.58100
O374        O  0.29968453  0.83208941  0.33069854    -0.56600
O375        O  0.39014086  0.89463482  0.35318964    -0.56600
O376        O  0.34827146  0.93321460  0.30215153    -0.55700
C377        C  0.36434103  0.73114320  0.29544043    -0.25500
C378        C  0.37339872  0.75251851  0.32269467    -0.13500
C379        C  0.38415516  0.73330577  0.35062122     0.37100
C380        C  0.38232263  0.69371591  0.35224041    -0.24900
C381        C  0.37067968  0.67241412  0.32634633    -0.14100
C382        C  0.36275445  0.69118564  0.29699463     0.38200
N383        N  0.35169039  0.67007756  0.26960211    -0.88400
H384        H  0.35650179  0.74567875  0.27370733     0.19300
H385        H  0.38933354  0.67940719  0.37442751     0.19300
N386        N  0.39601465  0.75412381  0.37779158    -0.87400
H387        H  0.34745401  0.68809563  0.24979365     0.36700
H388        H  0.33164724  0.65860535  0.27628181     0.41800
H389        H  0.41487260  0.76764171  0.36978279     0.41400
H390        H  0.40247615  0.73579746  0.39664106     0.36300
C391        C  0.11311990  0.23895914  0.17167174    -0.25500
C392        C  0.12196244  0.25581487  0.20105976    -0.13500
C393        C  0.12879591  0.23266968  0.22830958     0.37100
C394        C  0.12839717  0.19303316  0.22481539    -0.24900
C395        C  0.12196588  0.17622926  0.19455609    -0.14100
C396        C  0.11290028  0.19947270  0.16809900     0.38200
N397        N  0.10432316  0.18304109  0.13738476    -0.88400
H398        H  0.10744562  0.25677182  0.15094074     0.19300
H399        H  0.13508005  0.17532769  0.24522743     0.19300
N400        N  0.13797288  0.24929252  0.25873846    -0.87400
H401        H  0.09882866  0.20411300  0.12038470     0.36700
H402        H  0.08537808  0.16739812  0.14131666     0.41800
H403        H  0.15807269  0.26235041  0.25494009     0.41400
H404        H  0.14165816  0.22831453  0.27639009     0.36300
C405        C  0.11512389  0.75963607  0.47714107    -0.25500
C406        C  0.12068748  0.77682348  0.44694670    -0.13500
C407        C  0.13007728  0.75408089  0.42083134     0.37100
C408        C  0.13149621  0.71460437  0.42448380    -0.24900
C409        C  0.12361279  0.69691253  0.45383005    -0.14100
C410        C  0.11629128  0.71990359  0.48087932     0.38200
N411        N  0.10822295  0.70295436  0.51138073    -0.88400
H412        H  0.10814540  0.77704820  0.49735962     0.19300
H413        H  0.13762781  0.69762553  0.40364274     0.19300
N414        N  0.13774327  0.77091983  0.39026801    -0.87400
H415        H  0.10189205  0.72370061  0.52805901     0.36700
H416        H  0.12686843  0.69003099  0.52129815     0.41800
H417        H  0.12426356  0.75949738  0.37207287     0.41400
H418        H  0.15924688  0.76327656  0.38516481     0.36300
C419        C  0.37335533  0.25242239  0.05327487    -0.25500
C420        C  0.37315437  0.26866896  0.08457443    -0.13500
C421        C  0.36554071  0.24577689  0.11142830     0.37100
C422        C  0.36110439  0.20694111  0.10711659    -0.24900
C423        C  0.36457237  0.18979815  0.07653743    -0.14100
C424        C  0.36882334  0.21319216  0.04889053     0.38200
N425        N  0.36968008  0.19703091  0.01675996    -0.88400
H426        H  0.37825280  0.27001961  0.03236099     0.19300
H427        H  0.35678534  0.18977511  0.12847556     0.19300
N428        N  0.36296320  0.26156354  0.14345517    -0.87400
H429        H  0.37353911  0.21801107  0.99928901     0.36700
H430        H  0.34894366  0.18624583  0.01158972     0.41800
H431        H  0.37768525  0.24746851  0.15897893     0.41400
H432        H  0.34189977  0.25622758  0.15172164     0.36300
N433        N  0.01453339  0.09884767  0.52720176    -0.35700
N434        N  0.03143547  0.05747228  0.58353589    -0.56300
N435        N  0.07669106  0.01587662  0.54624427    -0.35700
N436        N  0.06331725  0.05471802  0.48820423    -0.56300
C437        C  0.99062091  0.10692885  0.54520688     0.27800
C438        C  0.50651617  0.10154817  0.49567603     0.27800
C439        C  0.08585998  0.00868616  0.57699448     0.27800
C440        C  0.09329815  0.99517767  0.52558138     0.27800
C441        C  0.00592267  0.07054322  0.59527969     0.36500
C442        C  0.04671584  0.04197711  0.60842137     0.36500
C443        C  0.04674495  0.06996736  0.96320180     0.36500
C444        C  0.08022897  0.02855511  0.47363110     0.36500
C445        C  0.46863903  0.12065732  0.52430897    -0.21000
C446        C  0.47907757  0.11756780  0.49314213    -0.21000
C447        C  0.10802291  0.98171761  0.57607439    -0.21000
C448        C  0.11227443  0.97268029  0.54369914    -0.21000
C449        C  0.00437511  0.06209259  0.62820788    -0.22100
C450        C  0.03050458  0.04484638  0.63674435    -0.22100
C451        C  0.05632479  0.05899565  0.93279466    -0.22100
C452        C  0.07969444  0.03502347  0.93779643    -0.22100
C453        C  0.98438339  0.09039126  0.57659518    -0.17400
C454        C  0.01543538  0.07454053  0.47290329    -0.17400
C455        C  0.09244859  0.99681087  0.49084825    -0.17400
C456        C  0.07528091  0.02649682  0.60572900    -0.17400
H457        H  0.44630431  0.12789160  0.52935924     0.15500
H458        H  0.46597675  0.12016061  0.47108570     0.15500
H459        H  0.11959643  0.96919601  0.59661677     0.15500
H460        H  0.12835526  0.95303119  0.53449841     0.15500
H461        H  0.98675032  0.06878766  0.64455621     0.13800
H462        H  0.03623554  0.03444152  0.66083104     0.13800
H463        H  0.04514145  0.06358037  0.90970242     0.13800
H464        H  0.09083150  0.02028178  0.91852612     0.13800
H465        H  0.03364227  0.08563538  0.53445996     0.27000
H466        H  0.05952131  0.03351498  0.54027945     0.27000
N467        N  0.49937333  0.98147427  0.93475477    -0.35700
N468        N  0.44686193  0.02017087  0.47600310    -0.56300
N469        N  0.41109604  0.95772066  0.95263015    -0.35700
N470        N  0.45694170  0.92336816  0.91639013    -0.56300
C471        C  0.50832385  0.00469857  0.46076208     0.27800
C472        C  0.51146572  0.94774089  0.94272665     0.27800
C473        C  0.39143562  0.97875455  0.47491875     0.27800
C474        C  0.39418575  0.93990721  0.93016876     0.27800
C475        C  0.47208377  0.03413106  0.48780588     0.36500
C476        C  0.43298900  0.00594528  0.50203674     0.36500
C477        C  0.48200229  0.90488994  0.90967792     0.36500
C478        C  0.43474638  0.90424481  0.90243504     0.36500
C479        C  0.02329046  0.98546758  0.48234367    -0.21000
C480        C  0.02769571  0.94955231  0.97032716    -0.21000
C481        C  0.36528644  0.97531749  0.96236854    -0.21000
C482        C  0.36532610  0.95082934  0.93579313    -0.21000
C483        C  0.47508444  0.02550317  0.52076177    -0.22100
C484        C  0.44984983  0.00861961  0.52998657    -0.22100
C485        C  0.47620430  0.87359077  0.89065763    -0.22100
C486        C  0.44623908  0.87323392  0.88579917    -0.22100
C487        C  0.49614264  0.03977629  0.46793943    -0.17400
C488        C  0.50878077  0.91463285  0.92443417    -0.17400
C489        C  0.40450324  0.91394993  0.90566709    -0.17400
C490        C  0.40324520  0.99921101  0.50151112    -0.17400
H491        H  0.03173090  0.99503189  0.50552568     0.15500
H492        H  0.03959746  0.92737903  0.98301664     0.15500
H493        H  0.34520418  0.99601946  0.47150777     0.15500
H494        H  0.34594370  0.94245580  0.92256224     0.15500
H495        H  0.49452018  0.02786031  0.53573081     0.13800
H496        H  0.44471427  0.99813835  0.55404579     0.13800
H497        H  0.49164139  0.85253503  0.88240969     0.13800
H498        H  0.43435660  0.85124620  0.87309435     0.13800
H499        H  0.48463019  0.98733085  0.91576394     0.27000
H500        H  0.43329893  0.95430565  0.95681758     0.27000
O501        O  0.44044209  0.40699341  0.62990856    -0.57000
C502        C  0.35492711  0.40142364  0.64914607     0.75700
O503        O  0.39801101  0.42952894  0.54596267    -0.58100
C504        C  0.45854735  0.39423654  0.60959040     0.75600
C505        C  0.37993586  0.31193927  0.58591173     0.78000
Cd506      Cd  0.39607534  0.39028131  0.59799155     1.37500
O507        O  0.38212815  0.40578202  0.65371069    -0.56900
O508        O  0.39133199  0.32386248  0.61216367    -0.55800
C509        C  0.39098564  0.46065055  0.55931699     0.78000
O510        O  0.37655555  0.33639890  0.56330723    -0.58100
O511        O  0.34688842  0.39255984  0.62051340    -0.56600
O512        O  0.44818761  0.37358346  0.58713551    -0.56600
O513        O  0.38255479  0.45782888  0.58837436    -0.55700
O514        O  0.37907937  0.04932156  0.63955258    -0.57000
C515        C  0.45302376  0.08485695  0.58609784     0.75700
O516        O  0.38411595  0.05662195  0.52326071    -0.58100
C517        C  0.35280314  0.04131557  0.63258769     0.75600
C518        C  0.37037277  0.14969916  0.57829697     0.78000
Cd519      Cd  0.38987016  0.07217683  0.58278076     1.37500
O520        O  0.44249505  0.05291839  0.59364847    -0.56900
O521        O  0.37766022  0.13347427  0.60476812    -0.55800
C522        C  0.38787781  0.02122798  0.52675280     0.78000
O523        O  0.36926000  0.12873833  0.55317442    -0.58100
O524        O  0.43470214  0.11118047  0.58254362    -0.56600
O525        O  0.34478736  0.04752361  0.60342090    -0.56600
O526        O  0.38769023  0.00906549  0.55578723    -0.55700
N527        N  0.99465193  0.47898651  0.59743725    -0.35700
N528        N  0.03910069  0.42216004  0.61291868    -0.56300
N529        N  0.08449544  0.45875023  0.57641260    -0.35700
N530        N  0.04425706  0.52429042  0.56167912    -0.56300
C531        C  0.98377546  0.44496906  0.58898453     0.27800
C532        C  0.98272716  0.50394155  0.57627943     0.27800
C533        C  0.10151666  0.44260967  0.59972214     0.27800
C534        C  0.10069889  0.48357879  0.55922996     0.27800
C535        C  0.01490487  0.40184838  0.61956097     0.36500
C536        C  0.06222348  0.40294584  0.62501341     0.36500
C537        C  0.01718688  0.53226868  0.04751844     0.36500
C538        C  0.05763327  0.50862485  0.03209450     0.36500
C539        C  0.46546554  0.45080969  0.55978329    -0.21000
C540        C  0.46516173  0.48826187  0.55197310    -0.21000
C541        C  0.12964409  0.45709928  0.59647776    -0.21000
C542        C  0.12915944  0.48246556  0.57037628    -0.21000
C543        C  0.02234194  0.36916128  0.63623342    -0.22100
C544        C  0.05239377  0.36990795  0.63995360    -0.22100
C545        C  0.01414343  0.52408417  0.01454876    -0.22100
C546        C  0.04020591  0.51026669  0.00452548    -0.22100
C547        C  0.98724057  0.41194114  0.60707346    -0.17400
C548        C  0.99386079  0.53998489  0.57080016    -0.17400
C549        C  0.08843766  0.50659451  0.53446871    -0.17400
C550        C  0.09181165  0.41528901  0.62311789    -0.17400
H551        H  0.45540805  0.42828805  0.54586643     0.15500
H552        H  0.45650474  0.49992045  0.52957752     0.15500
H553        H  0.14865830  0.45068697  0.61131089     0.15500
H554        H  0.14720992  0.49916263  0.56165429     0.15500
H555        H  0.00789118  0.34672917  0.64380916     0.13800
H556        H  0.06554624  0.34783237  0.65119469     0.13800
H557        H  0.99438867  0.52487384  0.99998555     0.13800
H558        H  0.04538767  0.50057328  0.98028431     0.13800
H559        H  0.00877222  0.48521321  0.61687095     0.27000
H560        H  0.06287937  0.45248898  0.57083250     0.27000
N561        N  0.47507386  0.59563946  0.00402926    -0.35700
N562        N  0.45742903  0.55439236  0.94806007    -0.56300
N563        N  0.41389879  0.51059277  0.98654133    -0.35700
N564        N  0.42372110  0.55686228  0.54812282    -0.56300
C565        C  0.49869371  0.60346920  0.98549672     0.27800
C566        C  0.48008323  0.60461154  0.54227614     0.27800
C567        C  0.40295196  0.50592748  0.95609264     0.27800
C568        C  0.39398084  0.50008756  0.50840869     0.27800
C569        C  0.48240774  0.56813477  0.93560186     0.36500
C570        C  0.44238356  0.53777239  0.92367099     0.36500
C571        C  0.44167657  0.57075769  0.57142606     0.36500
C572        C  0.40745532  0.52923221  0.56162571     0.36500
C573        C  0.01739837  0.61908441  0.00860733    -0.21000
C574        C  0.00768110  0.61925054  0.54591014    -0.21000
C575        C  0.37918124  0.48165979  0.95772432    -0.21000
C576        C  0.37585627  0.47152828  0.99009938    -0.21000
C577        C  0.48381985  0.55933330  0.90281553    -0.22100
C578        C  0.45823655  0.54081159  0.89503940    -0.22100
C579        C  0.43329993  0.55618891  0.60130068    -0.22100
C580        C  0.41173856  0.52999901  0.59526922    -0.22100
C581        C  0.50396481  0.58817122  0.95361628    -0.17400
C582        C  0.47144970  0.57612590  0.56450242    -0.17400
C583        C  0.39573176  0.49841733  0.54305284    -0.17400
C584        C  0.41382828  0.52261249  0.92681893    -0.17400
H585        H  0.03922396  0.62828423  0.00336357     0.15500
H586        H  0.02064666  0.62217618  0.56801231     0.15500
H587        H  0.36589311  0.47156551  0.93758119     0.15500
H588        H  0.35730342  0.46130878  0.49819777     0.15500
H589        H  0.50109776  0.56635385  0.88612222     0.13800
H590        H  0.45275985  0.52985174  0.87115975     0.13800
H591        H  0.44512918  0.55893833  0.62419442     0.13800
H592        H  0.40342446  0.51098026  0.61353764     0.13800
H593        H  0.45555480  0.58335850  0.99699775     0.27000
H594        H  0.43253819  0.52571614  0.99199463     0.27000
O595        O  0.05240934  0.90562165  0.89915014    -0.57000
C596        C  0.13963615  0.91152868  0.88358340     0.75700
O597        O  0.10494641  0.93027253  0.98426724    -0.58100
C598        C  0.03488650  0.89386903  0.92047902     0.75600
C599        C  0.11326248  0.81414702  0.94274843     0.78000
Cd600      Cd  0.09736170  0.89226088  0.93158220     1.37500
O601        O  0.11302763  0.90567964  0.87667785    -0.56900
O602        O  0.10528339  0.82748091  0.91539018    -0.55800
C603        C  0.09948859  0.96178942  0.97026823     0.78000
O604        O  0.11436324  0.83748584  0.96632825    -0.58100
O605        O  0.14701055  0.90805043  0.91331370    -0.56600
O606        O  0.04597525  0.87481308  0.94375640    -0.56600
O607        O  0.09465797  0.95960360  0.94004189    -0.55700
O608        O  0.10991086  0.55015591  0.89174912    -0.57000
C609        C  0.03494703  0.58364032  0.94671501     0.75700
O610        O  0.10720028  0.55866007  0.00811480    -0.58100
C611        C  0.13626610  0.54181463  0.89843100     0.75600
C612        C  0.11624426  0.65107344  0.95142569     0.78000
Cd613      Cd  0.09852469  0.57296293  0.94843086     1.37500
O614        O  0.04631941  0.55256542  0.93788902    -0.56900
O615        O  0.11438448  0.63297718  0.92482282    -0.55800
C616        C  0.10229918  0.52347753  0.00562249     0.78000
O617        O  0.11252145  0.63183144  0.97720206    -0.58100
O618        O  0.05253443  0.61052773  0.95062688    -0.56600
O619        O  0.14431025  0.54797640  0.92759051    -0.56600
O620        O  0.10102009  0.51065357  0.97687512    -0.55700
N621        N  0.21705339  0.84591799  0.77771375    -0.35700
N622        N  0.16716955  0.89134475  0.74017577    -0.56300
N623        N  0.15827652  0.93166423  0.79781241    -0.35700
N624        N  0.20332691  0.88787988  0.83443403    -0.56300
C625        C  0.22334462  0.84259141  0.74574124     0.27800
C626        C  0.24167772  0.83762522  0.79521912     0.27800
C627        C  0.14057815  0.95214113  0.77757170     0.27800
C628        C  0.14940910  0.93744804  0.82866822     0.27800
C629        C  0.18373110  0.87547033  0.71696142     0.36500
C630        C  0.15003798  0.91786979  0.72582464     0.36500
C631        C  0.22867423  0.87326188  0.84588981     0.36500
C632        C  0.18908260  0.90324590  0.85966634     0.36500
C633        C  0.25020301  0.82514000  0.74292169    -0.21000
C634        C  0.26171334  0.82164654  0.77391975    -0.21000
C635        C  0.12147439  0.97335805  0.79597533    -0.21000
C636        C  0.12652535  0.96339315  0.82817482    -0.21000
C637        C  0.17359028  0.88754683  0.68671116    -0.22100
C638        C  0.15216674  0.91410104  0.69213122    -0.22100
C639        C  0.23128436  0.88059549  0.87895906    -0.22100
C640        C  0.20579339  0.89866545  0.88792665    -0.22100
C641        C  0.21376775  0.87016738  0.72292480    -0.17400
C642        C  0.24905089  0.85296027  0.82678249    -0.17400
C643        C  0.16070628  0.91931868  0.85725437    -0.17400
C644        C  0.14000255  0.95060038  0.74292331    -0.17400
H645        H  0.26236017  0.82158808  0.72064790     0.15500
H646        H  0.28397044  0.81324906  0.77872390     0.15500
H647        H  0.10458339  0.99231696  0.78700024     0.15500
H648        H  0.11483303  0.97429315  0.84895304     0.15500
H649        H  0.18407066  0.88284161  0.66352589     0.13800
H650        H  0.14257222  0.93135966  0.67306744     0.13800
H651        H  0.24911377  0.87250208  0.89508111     0.13800
H652        H  0.20078571  0.90824467  0.91226899     0.13800
H653        H  0.19815425  0.85888445  0.78557542     0.27000
H654        H  0.17600715  0.91540242  0.79128437     0.27000
N655        N  0.23479012  0.96030136  0.68290066    -0.35700
N656        N  0.28473053  0.92043287  0.72267283    -0.56300
N657        N  0.32464892  0.98460404  0.70495890    -0.35700
N658        N  0.27928717  0.01706448  0.66455385    -0.56300
C659        C  0.22340744  0.93770323  0.70600893     0.27800
C660        C  0.22453882  0.99535479  0.68909358     0.27800
C661        C  0.34111204  0.96056602  0.72339817     0.27800
C662        C  0.34155031  0.99964304  0.68143392     0.27800
C663        C  0.25921868  0.90774584  0.73421645     0.36500
C664        C  0.29959251  0.93255089  0.74921103     0.36500
C665        C  0.25462433  0.03556116  0.65547881     0.36500
C666        C  0.30188522  0.03600547  0.65187578     0.36500
C667        C  0.20820408  0.95934851  0.72827113    -0.21000
C668        C  0.20815497  0.99554960  0.71710687    -0.21000
C669        C  0.36946181  0.96103748  0.71267632    -0.21000
C670        C  0.36973040  0.98526990  0.68582596    -0.21000
C671        C  0.25705755  0.91558010  0.76726614    -0.22100
C672        C  0.28315344  0.92996343  0.77701607    -0.22100
C673        C  0.26111544  0.06635902  0.63616459    -0.22100
C674        C  0.29115724  0.06665020  0.63369511    -0.22100
C675        C  0.23467229  0.90221966  0.71438949    -0.17400
C676        C  0.22745024  0.02657101  0.66866210    -0.17400
C677        C  0.33180052  0.02569208  0.65657069    -0.17400
C678        C  0.32939465  0.93890827  0.74908344    -0.17400
H679        H  0.20066120  0.95062438  0.75190923     0.15500
H680        H  0.19900304  0.01972974  0.72948949     0.15500
H681        H  0.38764842  0.94474150  0.72232782     0.15500
H682        H  0.38860734  0.99085141  0.67109040     0.15500
H683        H  0.23779086  0.91421582  0.78208361     0.13800
H684        H  0.28905517  0.93932110  0.80128641     0.13800
H685        H  0.24604516  0.08717850  0.62623540     0.13800
H686        H  0.30357673  0.08818086  0.62126071     0.13800
H687        H  0.24829164  0.95199785  0.66382881     0.27000
H688        H  0.30304093  0.99129132  0.70987738     0.27000
O689        O  0.13906474  0.39363114  0.64361970    -0.57000
C690        C  0.21138989  0.35188890  0.70200665     0.75700
O691        O  0.13485512  0.38236123  0.75793368    -0.58100
C692        C  0.11224997  0.40022318  0.64851624     0.75600
C693        C  0.12648465  0.29272854  0.69936893     0.78000
Cd694      Cd  0.14774596  0.36872852  0.70019710     1.37500
O695        O  0.20168614  0.37803633  0.68341568    -0.56900
O696        O  0.13332447  0.31028298  0.67362653    -0.55800
C697        C  0.14159389  0.41705144  0.75700088     0.78000
O698        O  0.12702488  0.31172013  0.72552399    -0.58100
O699        O  0.19194523  0.33429860  0.71716498    -0.56600
O700        O  0.10309176  0.39307651  0.67686795    -0.56600
O701        O  0.14512162  0.43101329  0.72883215    -0.55700
O702        O  0.12384780  0.03085230  0.62760856    -0.57000
C703        C  0.20002747  0.04800783  0.66463837     0.75700
O704        O  0.12398465  0.10837598  0.71384945    -0.58100
C705        C  0.09667188  0.03355811  0.63248435     0.75600
C706        C  0.13489168  0.98682926  0.72446282     0.78000
Cd707      Cd  0.13886256  0.05249355  0.68075594     1.37500
O708        O  0.18045490  0.03501352  0.64588942    -0.56900
O709        O  0.12509219  0.98719860  0.69564827    -0.55800
C710        C  0.12322595  0.13062260  0.68942709     0.78000
O711        O  0.14314261  0.01872210  0.73532653    -0.58100
O712        O  0.19145688  0.06971704  0.68710845    -0.56600
O713        O  0.08916479  0.04547192  0.66030894    -0.56600
O714        O  0.12883090  0.11599472  0.66212574    -0.55700
N715        N  0.25103484  0.45575320  0.84697581    -0.35700
N716        N  0.20107342  0.41063121  0.81259782    -0.56300
N717        N  0.16341158  0.47954301  0.82861055    -0.35700
N718        N  0.20932709  0.51603713  0.86355492    -0.56300
C719        C  0.26246578  0.43077646  0.82592974     0.27800
C720        C  0.26294550  0.48941911  0.83942384     0.27800
C721        C  0.14608455  0.45817398  0.80915081     0.27800
C722        C  0.14655354  0.49980313  0.84925409     0.27800
C723        C  0.22666877  0.39694045  0.80147214     0.36500
C724        C  0.18662445  0.42332040  0.78577343     0.36500
C725        C  0.23474943  0.53209666  0.87285079     0.36500
C726        C  0.18745763  0.53392952  0.87878296     0.32100
C727        C  0.27933587  0.44937469  0.80312589    -0.21000
C728        C  0.28037329  0.48632869  0.81229333    -0.21000
C729        C  0.11730061  0.46525242  0.81625882    -0.21000
C730        C  0.11749490  0.49092421  0.84198868    -0.21000
C731        C  0.22885889  0.40467579  0.76835108    -0.22100
C732        C  0.20327399  0.41978490  0.75822752    -0.22100
C733        C  0.22957408  0.56099656  0.89456782    -0.22100
C734        C  0.19957603  0.56214979  0.89854656    -0.22100
C735        C  0.25179024  0.39426890  0.82104752    -0.17400
C736        C  0.26142289  0.52149420  0.85894892    -0.17400
C737        C  0.15708610  0.52524853  0.87428199    -0.17400
C738        C  0.15731162  0.43375351  0.78509206    -0.17400
H739        H  0.28814742  0.43799688  0.78084756     0.15500
H740        H  0.29129889  0.50885708  0.79950488     0.15500
H741        H  0.09831890  0.45263177  0.80481289     0.15500
H742        H  0.09810151  0.50140687  0.85361142     0.15500
H743        H  0.24819994  0.40525592  0.75378594     0.13800
H744        H  0.19844064  0.42986599  0.73382485     0.13800
H745        H  0.24548959  0.57960863  0.90571610     0.13800
H746        H  0.18822933  0.58268393  0.91328788     0.13800
H747        H  0.23706892  0.44960831  0.86621997     0.27000
H748        H  0.18587120  0.48007802  0.82630386     0.27000
N749        N  0.27316539  0.34334634  0.75944071    -0.35700
N750        N  0.29188272  0.37208521  0.69966274    -0.56300
N751        N  0.33895463  0.41193322  0.73657255    -0.35700
N752        N  0.32114647  0.38219171  0.79799956    -0.56300
C753        C  0.25153810  0.32917677  0.74036305     0.27800
C754        C  0.26710301  0.33574194  0.79075976     0.27800
C755        C  0.34395837  0.42260822  0.70544672     0.27800
C756        C  0.35091710  0.43857073  0.75663154     0.27800
C757        C  0.26495171  0.36204129  0.68914465     0.36500
C758        C  0.30646496  0.38631378  0.67422824     0.36500
C759        C  0.30352866  0.36977960  0.82188561     0.36500
C760        C  0.33890616  0.40887812  0.81068814     0.36500
C761        C  0.23386643  0.30693778  0.76004930    -0.21000
C762        C  0.24317009  0.31219270  0.79187558    -0.21000
C763        C  0.36009184  0.45567744  0.70541055    -0.21000
C764        C  0.36410961  0.46603222  0.73754439    -0.21000
C765        C  0.26226646  0.36988391  0.65612828    -0.22100
C766        C  0.28879044  0.38453193  0.64647474    -0.22100
C767        C  0.31279734  0.38490343  0.85128173    -0.22100
C768        C  0.33525558  0.40930614  0.84443123    -0.22100
C769        C  0.24346063  0.34518693  0.70929172    -0.17400
C770        C  0.27381370  0.36245284  0.81509432    -0.17400
C771        C  0.35045723  0.43923796  0.79156096    -0.17400
C772        C  0.33434015  0.40356053  0.67680436    -0.17400
H773        H  0.21455176  0.29137130  0.75312941     0.15500
H774        H  0.23150980  0.30365946  0.81347340     0.15500
H775        H  0.36744334  0.47134508  0.68432694     0.15500
H776        H  0.37599711  0.49068334  0.74582481     0.15500
H777        H  0.24349326  0.36494318  0.64050779     0.13800
H778        H  0.29348544  0.39493679  0.62227654     0.13800
H779        H  0.30146026  0.38336828  0.87426723     0.13800
H780        H  0.34455580  0.42835816  0.86220978     0.13800
H781        H  0.28661864  0.36563486  0.75370675     0.27000
H782        H  0.32991952  0.38614859  0.74279632     0.27000
O783        O  0.36591266  0.53433214  0.90500269    -0.57000
C784        C  0.28986654  0.54037689  0.86295775     0.75700
O785        O  0.36554577  0.59967550  0.81072929    -0.58100
C786        C  0.39274432  0.52882075  0.89948470     0.75600
C787        C  0.35561845  0.47660151  0.80822362     0.78000
Cd788      Cd  0.35164692  0.54520864  0.84841279     1.37500
O789        O  0.30909561  0.52570484  0.88144114    -0.56900
O790        O  0.36736708  0.47896444  0.83608889    -0.55800
C791        C  0.36558176  0.62387779  0.83361620     0.78000
O792        O  0.34580607  0.50755768  0.79667815    -0.58100
O793        O  0.29906247  0.56235373  0.84102455    -0.56600
O794        O  0.40048387  0.53141278  0.86998195    -0.56600
O795        O  0.36069124  0.61093336  0.86178253    -0.55700
O796        O  0.35685672  0.89113745  0.88720126    -0.57000
C797        C  0.28082745  0.85587772  0.83575806     0.75700
O798        O  0.34842383  0.88139120  0.77169243    -0.58100
C799        C  0.38354086  0.89712290  0.88133302     0.75600
C800        C  0.36401929  0.78776762  0.82769508     0.78000
Cd801      Cd  0.34458089  0.86604664  0.83143652     1.37500
O802        O  0.29262202  0.88709455  0.84328793    -0.56900
O803        O  0.36127619  0.80563984  0.85423404    -0.55800
C804        C  0.34520486  0.91688379  0.77465173     0.78000
O805        O  0.35989177  0.80708583  0.80186048    -0.58100
O806        O  0.29828506  0.82865030  0.83210449    -0.56600
O807        O  0.39168712  0.88836022  0.85289535    -0.56600
O808        O  0.34685751  0.92941942  0.80346693    -0.55700
C809        C  0.36447224  0.72489214  0.79878703    -0.25500
C810        C  0.36984798  0.74606496  0.82734655    -0.13500
C811        C  0.37772932  0.72647708  0.85630078     0.37100
C812        C  0.37755054  0.68673335  0.85676810    -0.24900
C813        C  0.37010090  0.66543010  0.82901463    -0.14100
C814        C  0.36456314  0.68476896  0.79925687     0.38200
N815        N  0.35805678  0.66395438  0.76997711    -0.88400
H816        H  0.35875018  0.73961784  0.77636585     0.19300
H817        H  0.38262913  0.67222139  0.87948035     0.19300
N818        N  0.38523299  0.74689999  0.88552568    -0.87400
H819        H  0.35530913  0.68241755  0.75016813     0.36700
H820        H  0.33801754  0.65054899  0.77319438     0.41800
H821        H  0.40452052  0.76159472  0.88103046     0.41400
H822        H  0.38977315  0.72828297  0.90483485     0.36300
C823        C  0.11531905  0.23475958  0.66800008    -0.25500
C824        C  0.11999837  0.25167498  0.69853634    -0.13500
C825        C  0.12181844  0.22847556  0.72671840     0.37100
C826        C  0.12004210  0.18889137  0.72337298    -0.24900
C827        C  0.11796159  0.17195750  0.69246776    -0.14100
C828        C  0.11455335  0.19531211  0.66452236     0.38200
N829        N  0.11152052  0.17906440  0.63250003    -0.88400
H830        H  0.11354523  0.25239119  0.64636928     0.19300
H831        H  0.12255719  0.17114892  0.74484416     0.19300
N832        N  0.12732596  0.24473918  0.75832908    -0.87400
H833        H  0.11043372  0.20017890  0.61457321     0.36700
H834        H  0.09159590  0.16481895  0.63161602     0.41800
H835        H  0.14855925  0.25540299  0.75832311     0.41400
H836        H  0.12699263  0.22385120  0.77646410     0.36300
C837        C  0.11627378  0.75522008  0.97693425    -0.25500
C838        C  0.11955940  0.77301505  0.94650788    -0.13500
C839        C  0.12587921  0.75052594  0.91903885     0.37100
C840        C  0.12630344  0.71099039  0.92178776    -0.24900
C841        C  0.12080937  0.69284039  0.95160736    -0.14100
C842        C  0.11676903  0.71533781  0.97982669     0.38200
N843        N  0.11176020  0.69783519  0.01096017    -0.88400
H844        H  0.11180936  0.77234005  0.99821835     0.19300
H845        H  0.13003035  0.69441683  0.89999255     0.19300
N846        N  0.13149599  0.76767764  0.88801338    -0.87400
H847        H  0.10802754  0.71834737  0.02881016     0.36700
H848        H  0.13096284  0.68377732  0.01788910     0.41800
H849        H  0.11613593  0.75754088  0.87115590     0.41400
H850        H  0.15214866  0.75894839  0.88048682     0.36300
C851        C  0.37144650  0.25355988  0.55178802    -0.25500
C852        C  0.37167775  0.27129833  0.58251220    -0.13500
C853        C  0.36627556  0.24907479  0.61049011     0.37100
C854        C  0.36281622  0.20988829  0.60766240    -0.24900
C855        C  0.36565707  0.19146641  0.57757875    -0.14100
C856        C  0.36888127  0.21371060  0.54901599     0.38200
N857        N  0.37157897  0.19582359  0.51772115    -0.88400
H858        H  0.37516119  0.27046131  0.53013988     0.19300
H859        H  0.35972758  0.19350017  0.62975612     0.19300
N860        N  0.36522140  0.26594542  0.64223163    -0.87400
H861        H  0.37510152  0.21605287  0.49951947     0.36700
H862        H  0.35159381  0.18310755  0.51217398     0.41800
H863        H  0.38140270  0.25329694  0.65683809     0.41400
H864        H  0.34500286  0.25973336  0.65241329     0.36300
N865        N  0.51598107  0.10118950  0.02240669    -0.35700
N866        N  0.53496423  0.06251190  0.07976580    -0.56300
N867        N  0.58090316  0.02167529  0.04336294    -0.35700
N868        N  0.56599655  0.05828173  0.98511499    -0.56300
C869        C  0.49165953  0.10739351  0.04028298     0.27800
C870        C  0.00819701  0.10207581  0.99234041     0.27800
C871        C  0.59203831  0.01868343  0.07389139     0.27800
C872        C  0.59860361  0.00230496  0.02284338     0.27800
C873        C  0.50876159  0.07374544  0.09112690     0.36500
C874        C  0.55084697  0.04868125  0.10500700     0.36500
C875        C  0.54565031  0.07000446  0.46687750     0.36500
C876        C  0.58390161  0.03301310  0.97085689     0.36500
C877        C  0.97117185  0.12237127  0.02173108    -0.21000
C878        C  0.98110487  0.11907412  0.99034192    -0.21000
C879        C  0.61685109  0.99581013  0.07280864    -0.21000
C880        C  0.62063493  0.98503994  0.04074431    -0.21000
C881        C  0.50746366  0.06601195  0.12416463    -0.22100
C882        C  0.53428977  0.05102951  0.13315617    -0.22100
C883        C  0.55498402  0.05826447  0.43655398    -0.22100
C884        C  0.57751531  0.03304001  0.44176037    -0.22100
C885        C  0.48641891  0.09166481  0.07213931    -0.17400
C886        C  0.51813648  0.07627258  0.96823373    -0.17400
C887        C  0.59598676  0.00128186  0.98825913    -0.17400
C888        C  0.58018413  0.03527349  0.10272811    -0.17400
H889        H  0.94921280  0.13102827  0.02705469     0.15500
H890        H  0.96784235  0.12251317  0.96849115     0.15500
H891        H  0.63047603  0.98664746  0.09308067     0.15500
H892        H  0.63830703  0.96788701  0.03153140     0.15500
H893        H  0.48946975  0.07171419  0.14028647     0.13800
H894        H  0.54011403  0.04165892  0.15749713     0.13800
H895        H  0.54358730  0.06242351  0.41352561     0.13800
H896        H  0.58716793  0.01649486  0.42260790     0.13800
H897        H  0.53566037  0.08957087  0.02992430     0.27000
H898        H  0.56147621  0.03489273  0.03730003     0.27000
N899        N  0.99530487  0.98259778  0.43733549    -0.35700
N900        N  0.94692026  0.02240422  0.97311884    -0.56300
N901        N  0.90795232  0.95523383  0.45950325    -0.35700
N902        N  0.95308557  0.92401267  0.41955554    -0.56300
C903        C  0.00858525  0.00516523  0.95732485     0.27800
C904        C  0.00738411  0.94841276  0.44341413     0.27800
C905        C  0.89231162  0.97698064  0.97488494     0.27800
C906        C  0.89078478  0.93997969  0.43594695     0.27800
C907        C  0.97267113  0.03585011  0.98405154     0.36500
C908        C  0.93359516  0.00876096  0.99981454     0.36500
C909        C  0.97790855  0.90618079  0.41077147     0.36500
C910        C  0.93052906  0.90437706  0.40713282     0.36500
C911        C  0.52814941  0.98829069  0.97860108    -0.21000
C912        C  0.52460609  0.94736227  0.47304236    -0.21000
C913        C  0.86275860  0.97596766  0.46848279    -0.21000
C914        C  0.86232661  0.95269324  0.44102244    -0.21000
C915        C  0.97633468  0.02758404  0.01697361    -0.22100
C916        C  0.95121615  0.01149716  0.02718638    -0.22100
C917        C  0.97149087  0.87464921  0.39226907    -0.22100
C918        C  0.94135504  0.87353761  0.38972773    -0.22100
C919        C  0.99659638  0.04074490  0.96376685    -0.17400
C920        C  0.00534361  0.91732188  0.42285311    -0.17400
C921        C  0.90060578  0.91464886  0.41091775    -0.17400
C922        C  0.90420471  0.99932437  0.00030376    -0.17400
H923        H  0.53632321  0.99939083  0.00131553     0.15500
H924        H  0.53476939  0.92356722  0.48542743     0.15500
H925        H  0.84465158  0.98269141  0.97949460     0.15500
H926        H  0.84309653  0.94617065  0.42666296     0.15500
H927        H  0.99623347  0.02920677  0.03122865     0.13800
H928        H  0.94705239  0.00074043  0.05139056     0.13800
H929        H  0.98670808  0.85414362  0.38264762     0.13800
H930        H  0.92892354  0.85165126  0.37751359     0.13800
H931        H  0.98106310  0.99006243  0.41827207     0.27000
H932        H  0.92988487  0.94959165  0.46406698     0.27000
O933        O  0.94372485  0.39715452  0.13500380    -0.57000
C934        C  0.85774698  0.39864050  0.15358759     0.75700
O935        O  0.89441172  0.42018061  0.04796296    -0.58100
C936        C  0.96112181  0.38765626  0.11275653     0.75600
C937        C  0.88217353  0.30758613  0.08934863     0.78000
Cd938      Cd  0.89873160  0.38467073  0.10232155     1.37500
O939        O  0.88488944  0.40377646  0.15752357    -0.56900
O940        O  0.89280492  0.31862193  0.11630157    -0.55800
C941        C  0.89361391  0.45278722  0.06092904     0.78000
O942        O  0.87970103  0.33241962  0.06699401    -0.58100
O943        O  0.84967609  0.38758499  0.12555971    -0.56600
O944        O  0.95022876  0.36921500  0.08918437    -0.56600
O945        O  0.89229363  0.45245837  0.09159687    -0.55700
O946        O  0.88211274  0.04557500  0.13963445    -0.57000
C947        C  0.95539758  0.08381671  0.08332645     0.75700
O948        O  0.88084353  0.05224907  0.02464659    -0.58100
C949        C  0.85542834  0.03899655  0.13347571     0.75600
C950        C  0.87221121  0.14632312  0.07870040     0.78000
Cd951      Cd  0.89203982  0.06893682  0.08286372     1.37500
O952        O  0.94575623  0.05280008  0.09451983    -0.56900
O953        O  0.87695308  0.12926452  0.10550072    -0.55800
C954        C  0.88873111  0.01794647  0.02735259     0.78000
O955        O  0.87375945  0.12625174  0.05312875    -0.58100
O956        O  0.93616739  0.10835566  0.07715969    -0.56600
O957        O  0.84688098  0.04563967  0.10455057    -0.56600
O958        O  0.89257311  0.00585957  0.05616884    -0.55700
N959        N  0.49577276  0.47721404  0.09340029    -0.35700
N960        N  0.54038369  0.42266445  0.11127201    -0.56300
N961        N  0.58569828  0.45662687  0.07291607    -0.35700
N962        N  0.54515588  0.51853722  0.05416243    -0.56300
C963        C  0.48462041  0.44271511  0.08693050     0.27800
C964        C  0.48409738  0.50078479  0.07094765     0.27800
C965        C  0.60223124  0.44496532  0.09855474     0.27800
C966        C  0.60140558  0.48096692  0.05455528     0.27800
C967        C  0.51636860  0.40329601  0.12021955     0.36500
C968        C  0.56346484  0.40672034  0.12652804     0.36500
C969        C  0.51704388  0.53987481  0.55134049     0.36500
C970        C  0.55854230  0.51959478  0.53622541     0.36500
C971        C  0.96564383  0.44416082  0.06244040    -0.21000
C972        C  0.96578016  0.48086374  0.05258598    -0.21000
C973        C  0.62959426  0.46175344  0.09577573    -0.21000
C974        C  0.62915195  0.48409088  0.06761723    -0.21000
C975        C  0.52381293  0.37441306  0.14144747    -0.22100
C976        C  0.55372511  0.37666505  0.14572088    -0.22100
C977        C  0.51474610  0.53229393  0.51824071    -0.22100
C978        C  0.54141282  0.52076544  0.50842962    -0.22100
C979        C  0.48880705  0.41077420  0.10641291    -0.17400
C980        C  0.49556042  0.53626160  0.06364356    -0.17400
C981        C  0.58897416  0.50015204  0.02740136    -0.17400
C982        C  0.59283201  0.41969411  0.12379053    -0.17400
H983        H  0.95532193  0.42109953  0.04949209     0.15500
H984        H  0.95755168  0.49074838  0.02943086     0.15500
H985        H  0.64790398  0.45891368  0.11247110     0.15500
H986        H  0.64662168  0.50171785  0.05877537     0.15500
H987        H  0.50942789  0.35368377  0.15211546     0.13800
H988        H  0.56677473  0.35745320  0.16048418     0.13800
H989        H  0.49518062  0.53220488  0.50332914     0.13800
H990        H  0.54706020  0.51151240  0.48422041     0.13800
H991        H  0.51005430  0.48469905  0.11234014     0.27000
H992        H  0.56482913  0.44751716  0.06665619     0.27000
N993        N  0.97354651  0.59918766  0.51136667    -0.35700
N994        N  0.95581532  0.56255979  0.45305121    -0.56300
N995        N  0.91151551  0.51721063  0.48877008    -0.35700
N996        N  0.92525483  0.54795385  0.04363585    -0.56300
C997        C  0.99738138  0.60801576  0.49347344     0.27800
C998        C  0.98047774  0.59726637  0.03745163     0.27800
C999        C  0.90117844  0.51354434  0.45801137     0.27800
C1000       C  0.89727773  0.48721869  0.00705560     0.27800
C1001       C  0.98243686  0.57308686  0.44259674     0.36500
C1002       C  0.94178568  0.54534261  0.42817284     0.36500
C1003       C  0.94226502  0.56431012  0.06652938     0.36500
C1004       C  0.90820350  0.52223469  0.05843015     0.36500
C1005       C  0.51812759  0.62518794  0.51431975    -0.21000
C1006       C  0.51061639  0.61446896  0.03743374    -0.21000
C1007       C  0.87764739  0.48874616  0.45826951    -0.21000
C1008       C  0.87383930  0.47732877  0.49020907    -0.21000
C1009       C  0.98558265  0.56190452  0.41045427    -0.22100
C1010       C  0.95964137  0.54509046  0.40109919    -0.22100
C1011       C  0.93274200  0.55328307  0.09696948    -0.22100
C1012       C  0.91075696  0.52742810  0.09204078    -0.22100
C1013       C  0.00373906  0.59264422  0.46172270    -0.17400
C1014       C  0.97205832  0.56959596  0.06039229    -0.17400
C1015       C  0.89783686  0.48904330  0.04189808    -0.17400
C1016       C  0.91288899  0.53103411  0.42965179    -0.17400
H1017       H  0.54033430  0.63331660  0.50979628     0.15500
H1018       H  0.52421294  0.61689692  0.05910255     0.15500
H1019       H  0.86507789  0.47877842  0.43751223     0.15500
H1020       H  0.86141694  0.44674218  0.99802937     0.15500
H1021       H  0.00431779  0.56611952  0.39510284     0.13800
H1022       H  0.95510037  0.53277257  0.37745914     0.13800
H1023       H  0.94345324  0.55888588  0.12013734     0.13800
H1024       H  0.90048176  0.51216008  0.11156993     0.13800
H1025       H  0.95470930  0.58570338  0.50389918     0.27000
H1026       H  0.93010543  0.53186009  0.49526364     0.27000
O1027       O  0.55214497  0.91364433  0.39954124    -0.57000
C1028       C  0.63887031  0.91441328  0.38396992     0.75700
O1029       O  0.59213013  0.92947198  0.48563174    -0.58100
C1030       C  0.53420739  0.89790571  0.41842057     0.75600
C1031       C  0.61368687  0.81884346  0.44403955     0.78000
Cd1032     Cd  0.59636359  0.89580209  0.43170016     1.37500
O1033       O  0.61198235  0.91082029  0.37697330    -0.56900
O1034       O  0.60677357  0.83128168  0.41604008    -0.55800
C1035       C  0.59863750  0.96180135  0.47431478     0.78000
O1036       O  0.61299483  0.84248627  0.46732415    -0.58100
O1037       O  0.64616436  0.90924596  0.41356944    -0.56600
O1038       O  0.54491546  0.87556790  0.43953639    -0.56600
O1039       O  0.60736776  0.96201969  0.44530529    -0.55700
O1040       O  0.61093399  0.55661352  0.39416669    -0.57000
C1041       C  0.53594469  0.59078022  0.45139491     0.75700
O1042       O  0.60904182  0.56653179  0.51061253    -0.58100
C1043       C  0.63704000  0.54702582  0.40085576     0.75600
C1044       C  0.61892612  0.65678423  0.45339594     0.78000
Cd1045     Cd  0.59987260  0.57919455  0.45106439     1.37500
O1046       O  0.54690031  0.56057353  0.43998544    -0.56900
O1047       O  0.61528102  0.63951878  0.42659513    -0.55800
C1048       C  0.60358592  0.53143180  0.50924485     0.78000
O1049       O  0.61672524  0.63690632  0.47902411    -0.58100
O1050       O  0.55403100  0.61666538  0.45721481    -0.56600
O1051       O  0.64505845  0.55175987  0.43023352    -0.56600
O1052       O  0.60204419  0.51741381  0.48090766    -0.55700
N1053       N  0.71780312  0.84720373  0.27826139    -0.35700
N1054       N  0.66977010  0.89614859  0.24157662    -0.56300
N1055       N  0.65976226  0.93583369  0.29883321    -0.35700
N1056       N  0.70225682  0.88753299  0.33555452    -0.56300
C1057       C  0.72504509  0.84506570  0.24649620     0.27800
C1058       C  0.74198390  0.83854354  0.29630527     0.27800
C1059       C  0.64286006  0.95714062  0.27832306     0.27800
C1060       C  0.65008104  0.94087068  0.32944243     0.27800
C1061       C  0.68583037  0.87910360  0.21854780     0.36500
C1062       C  0.65256932  0.92236386  0.22691977     0.36500
C1063       C  0.72774032  0.87333098  0.34712967     0.36500
C1064       C  0.68829113  0.90403649  0.36051546     0.36500
C1065       C  0.75202214  0.82785489  0.24406060    -0.21000
C1066       C  0.76266301  0.82331936  0.27531291    -0.21000
C1067       C  0.62357474  0.97835134  0.29652979    -0.21000
C1068       C  0.62763746  0.96746126  0.32870411    -0.21000
C1069       C  0.67549686  0.89041451  0.18821629    -0.22100
C1070       C  0.65421469  0.91727505  0.19331417    -0.22100
C1071       C  0.73046167  0.88162768  0.38003174    -0.22100
C1072       C  0.70509054  0.90014035  0.38875685    -0.22100
C1073       C  0.71581852  0.87327597  0.22419505    -0.17400
C1074       C  0.74856721  0.85347535  0.32816041    -0.17400
C1075       C  0.66036931  0.92148883  0.35788949    -0.17400
C1076       C  0.64269959  0.95560425  0.24357182    -0.17400
H1077       H  0.76480728  0.82521215  0.22213681     0.15500
H1078       H  0.78483417  0.81491299  0.28062327     0.15500
H1079       H  0.60703381  0.99772092  0.28739834     0.15500
H1080       H  0.61550139  0.97808535  0.34926495     0.15500
H1081       H  0.68550089  0.88452731  0.16496891     0.13800
H1082       H  0.64397558  0.93330245  0.17388824     0.13800
H1083       H  0.74849142  0.87433636  0.39615527     0.13800
H1084       H  0.70034552  0.91087173  0.41281538     0.13800
H1085       H  0.69878442  0.86014743  0.28582114     0.27000
H1086       H  0.67749890  0.91931667  0.29278599     0.27000
N1087       N  0.73719631  0.96427860  0.18625269    -0.35700
N1088       N  0.78652515  0.92424021  0.22626561    -0.56300
N1089       N  0.82700020  0.98642529  0.20788442    -0.35700
N1090       N  0.78193663  0.01908777  0.16766037    -0.56300
C1091       C  0.72564353  0.94127857  0.20892359     0.27800
C1092       C  0.72685132  0.99924116  0.19274553     0.27800
C1093       C  0.84294298  0.96257138  0.22694125     0.27800
C1094       C  0.84393682  0.99932616  0.18353016     0.27800
C1095       C  0.76110069  0.91060941  0.23721635     0.36500
C1096       C  0.80081115  0.93675607  0.25303855     0.36500
C1097       C  0.75768047  0.03894967  0.15944857     0.36500
C1098       C  0.80482311  0.03678747  0.15432168     0.36500
C1099       C  0.71040683  0.96261734  0.23135183    -0.21000
C1100       C  0.71008915  0.99892037  0.22047550    -0.21000
C1101       C  0.87116624  0.96103875  0.21581790    -0.21000
C1102       C  0.87175402  0.98379486  0.18799564    -0.21000
C1103       C  0.75841571  0.91788135  0.27031779    -0.22100
C1104       C  0.78398660  0.93345513  0.28051987    -0.22100
C1105       C  0.76472911  0.06955476  0.14016073    -0.22100
C1106       C  0.79468097  0.06811583  0.13664043    -0.22100
C1107       C  0.73681116  0.90561007  0.21688400    -0.17400
C1108       C  0.73046497  0.03100014  0.17307286    -0.17400
C1109       C  0.83448593  0.02487887  0.15819814    -0.17400
C1110       C  0.83067397  0.94292484  0.25341935    -0.17400
H1111       H  0.70297513  0.95364756  0.25493920     0.15500
H1112       H  0.70057711  0.02276792  0.23301048     0.15500
H1113       H  0.88900204  0.94439567  0.22585721     0.15500
H1114       H  0.89057638  0.98776911  0.17279018     0.15500
H1115       H  0.73900580  0.91566454  0.28482296     0.13800
H1116       H  0.78931307  0.94288288  0.30493050     0.13800
H1117       H  0.75012361  0.09126030  0.13080823     0.13800
H1118       H  0.80751252  0.08897604  0.12389844     0.13800
H1119       H  0.75089618  0.95624792  0.16727547     0.27000
H1120       H  0.80574871  0.99457355  0.21308295     0.27000
O1121       O  0.63986023  0.39751845  0.14422203    -0.57000
C1122       C  0.71222558  0.35750655  0.20525943     0.75700
O1123       O  0.63853516  0.38768080  0.26012236    -0.58100
C1124       C  0.61361036  0.40678441  0.14968843     0.75600
C1125       C  0.62707532  0.29924706  0.20059635     0.78000
Cd1126     Cd  0.64881708  0.37488071  0.20164735     1.37500
O1127       O  0.70328310  0.38580862  0.18862622    -0.56900
O1128       O  0.63701572  0.31533999  0.17547937    -0.55800
C1129       C  0.64336426  0.42293007  0.25869240     0.78000
O1130       O  0.62419039  0.31964430  0.22576096    -0.58100
O1131       O  0.69224739  0.33761998  0.21709286    -0.56600
O1132       O  0.60515701  0.40316266  0.17879555    -0.56600
O1133       O  0.64518363  0.43694964  0.23033529    -0.55700
O1134       O  0.62782505  0.04513998  0.12592491    -0.57000
C1135       C  0.70335472  0.05305417  0.16877281     0.75700
O1136       O  0.62611499  0.11415106  0.21569523    -0.58100
C1137       C  0.60069454  0.04193392  0.13062281     0.75600
C1138       C  0.63772981  0.99183659  0.22466750     0.78000
Cd1139     Cd  0.64167269  0.05879049  0.18174165     1.37500
O1140       O  0.68441193  0.04167921  0.14848888    -0.56900
O1141       O  0.63210162  0.99185802  0.19451781    -0.55800
C1142       C  0.62655823  0.13713774  0.19181296     0.78000
O1143       O  0.64204469  0.02441757  0.23683903    -0.58100
O1144       O  0.69416824  0.07374753  0.19164556    -0.56600
O1145       O  0.59235739  0.04692115  0.15968013    -0.56600
O1146       O  0.63335000  0.12332522  0.16456171    -0.55700
N1147       N  0.75275487  0.46620476  0.34808258    -0.35700
N1148       N  0.70273495  0.42022043  0.31360447    -0.56300
N1149       N  0.66424464  0.48615091  0.33039228    -0.35700
N1150       N  0.71003237  0.52468207  0.36413379    -0.56300
C1151       C  0.76461779  0.44055611  0.32797983     0.27800
C1152       C  0.76438982  0.49980034  0.33987542     0.27800
C1153       C  0.64713266  0.46490355  0.31060426     0.27800
C1154       C  0.64729607  0.50569687  0.35134748     0.27800
C1155       C  0.72860488  0.40744689  0.30284077     0.36500
C1156       C  0.68830180  0.43237482  0.28667316     0.36500
C1157       C  0.73510577  0.54216877  0.37268444     0.36500
C1158       C  0.68792390  0.54137742  0.37995211     0.32100
C1159       C  0.78180891  0.45853193  0.30509835    -0.21000
C1160       C  0.78248616  0.49587588  0.31332415    -0.21000
C1161       C  0.61828451  0.47128777  0.31796202    -0.21000
C1162       C  0.61831039  0.49644762  0.34413495    -0.21000
C1163       C  0.73111486  0.41507633  0.26969456    -0.22100
C1164       C  0.70520356  0.42934991  0.25923101    -0.22100
C1165       C  0.72938176  0.57101182  0.39430611    -0.22100
C1166       C  0.69947585  0.57042636  0.39918142    -0.22100
C1167       C  0.75314251  0.40450010  0.32322293    -0.17400
C1168       C  0.76193841  0.53258631  0.35847742    -0.17400
C1169       C  0.65774630  0.53119797  0.37630690    -0.17400
C1170       C  0.65877734  0.44138848  0.28609225    -0.17400
H1171       H  0.79083059  0.44655769  0.28315926     0.15500
H1172       H  0.79366902  0.51797195  0.30022315     0.15500
H1173       H  0.59939430  0.45873857  0.30626814     0.15500
H1174       H  0.59891696  0.50663362  0.35597976     0.15500
H1175       H  0.75056239  0.41477401  0.25519204     0.13800
H1176       H  0.70002649  0.43880744  0.23471518     0.13800
H1177       H  0.74487225  0.59059939  0.40492855     0.13800
H1178       H  0.68769104  0.59028948  0.41417888     0.13800
H1179       H  0.73841712  0.46051826  0.36708095     0.27000
H1180       H  0.68668176  0.48715917  0.32816742     0.27000
N1181       N  0.77275882  0.34960472  0.26489552    -0.35700
N1182       N  0.79339988  0.37454606  0.20474141    -0.56300
N1183       N  0.84142935  0.41396196  0.24084926    -0.35700
N1184       N  0.82117537  0.38905372  0.30210285    -0.56300
C1185       C  0.75063914  0.33620832  0.24617095     0.27800
C1186       C  0.76646422  0.34352258  0.29637399     0.27800
C1187       C  0.84721870  0.42252700  0.20943119     0.27800
C1188       C  0.85321744  0.44161742  0.26013347     0.27800
C1189       C  0.76631532  0.36525680  0.19404914     0.36500
C1190       C  0.80891610  0.38625369  0.17903193     0.36500
C1191       C  0.80371560  0.37708022  0.32617436     0.36500
C1192       C  0.84002909  0.41447900  0.31454956     0.36500
C1193       C  0.73184993  0.31637388  0.26647301    -0.21000
C1194       C  0.74154828  0.32183532  0.29811647    -0.21000
C1195       C  0.86392158  0.45512100  0.20847162    -0.21000
C1196       C  0.86728456  0.46746500  0.24023692    -0.21000
C1197       C  0.76447279  0.37097940  0.16069964    -0.22100
C1198       C  0.79160992  0.38350989  0.15101951    -0.22100
C1199       C  0.81382226  0.39142075  0.35548647    -0.22100
C1200       C  0.83710507  0.41443391  0.34841079    -0.22100
C1201       C  0.74388453  0.35061181  0.21420624    -0.17400
C1202       C  0.77388935  0.37098271  0.31970686    -0.17400
C1203       C  0.85192755  0.44428265  0.29506151    -0.17400
C1204       C  0.83728997  0.40239303  0.18133891    -0.17400
H1205       H  0.71176854  0.30221981  0.26016076     0.15500
H1206       H  0.72953362  0.31508469  0.31993455     0.15500
H1207       H  0.87189314  0.46940217  0.18696185     0.15500
H1208       H  0.87931980  0.49231659  0.24773521     0.15500
H1209       H  0.74578982  0.36604731  0.14493555     0.13800
H1210       H  0.79692569  0.39206922  0.12647243     0.13800
H1211       H  0.80301912  0.38978784  0.37878675     0.13800
H1212       H  0.84800351  0.43171730  0.36640084     0.13800
H1213       H  0.78706122  0.37075872  0.25858806     0.27000
H1214       H  0.83171254  0.38882603  0.24773131     0.27000
O1215       O  0.86547633  0.54024756  0.40567647    -0.57000
C1216       C  0.79013647  0.55194915  0.36292645     0.75700
O1217       O  0.86489137  0.60642688  0.31108641    -0.58100
C1218       C  0.89276110  0.53764348  0.40145479     0.75600
C1219       C  0.85657006  0.48245431  0.31101828     0.78000
Cd1220     Cd  0.85228205  0.55321600  0.34947010     1.37500
O1221       O  0.80867497  0.53853917  0.38292281    -0.56900
O1222       O  0.86434242  0.48552505  0.34044601    -0.55800
C1223       C  0.86830880  0.63062764  0.33366645     0.78000
O1224       O  0.85002958  0.51362056  0.29719642    -0.58100
O1225       O  0.80021359  0.57205373  0.34017905    -0.56600
O1226       O  0.90158282  0.54323972  0.37262691    -0.56600
O1227       O  0.86560004  0.61833590  0.36246172    -0.55700
O1228       O  0.85378663  0.89040563  0.39187621    -0.57000
C1229       C  0.78017181  0.85705950  0.33745231     0.75700
O1230       O  0.85004079  0.88548429  0.27544264    -0.58100
C1231       C  0.87989529  0.89955573  0.38591250     0.75600
C1232       C  0.86681205  0.79265878  0.32784031     0.78000
Cd1233     Cd  0.84370274  0.86866166  0.33449933     1.37500
O1234       O  0.79145722  0.88863897  0.34467972    -0.56900
O1235       O  0.86238984  0.80804682  0.35522718    -0.55800
C1236       C  0.84584132  0.92069004  0.27914252     0.78000
O1237       O  0.86238004  0.81336415  0.30291576    -0.58100
O1238       O  0.79800070  0.83012464  0.33427534    -0.56600
O1239       O  0.88813989  0.89472328  0.35686023    -0.56600
O1240       O  0.84566060  0.93232036  0.30828249    -0.55700
C1241       C  0.86450757  0.73073643  0.29848232    -0.25500
C1242       C  0.87441333  0.75178859  0.32548100    -0.13500
C1243       C  0.88746818  0.73250477  0.35210814     0.37100
C1244       C  0.88682365  0.69272799  0.35311437    -0.24900
C1245       C  0.87399345  0.67157406  0.32775885    -0.14100
C1246       C  0.86406408  0.69074713  0.29934199     0.38200
N1247       N  0.85200455  0.66992831  0.27230638    -0.88400
H1248       H  0.85497755  0.74546153  0.27769046     0.19300
H1249       H  0.89545206  0.67817874  0.37447804     0.19300
N1250       N  0.90054366  0.75343475  0.37850804    -0.87400
H1251       H  0.84655531  0.68823304  0.25305612     0.36700
H1252       H  0.83248443  0.65783139  0.27999833     0.41800
H1253       H  0.91822068  0.76830000  0.36903896     0.41400
H1254       H  0.90905376  0.73503645  0.39628423     0.36300
C1255       C  0.61484859  0.24071347  0.17059456    -0.25500
C1256       C  0.62121519  0.25813061  0.20050892    -0.13500
C1257       C  0.62600916  0.23544091  0.22856864     0.37100
C1258       C  0.62529552  0.19571352  0.22570196    -0.24900
C1259       C  0.62098057  0.17834180  0.19524287    -0.14100
C1260       C  0.61466571  0.20117535  0.16758254     0.38200
N1261       N  0.60893079  0.18423765  0.13627478    -0.88400
H1262       H  0.61104511  0.25811204  0.14911167     0.19300
H1263       H  0.63019637  0.17832612  0.24691054     0.19300
N1264       N  0.63352628  0.25257405  0.25933366    -0.87400
H1265       H  0.60540687  0.20501421  0.11840559     0.36700
H1266       H  0.58951323  0.16901497  0.13806422     0.41800
H1267       H  0.65396388  0.26520224  0.25683968     0.41400
H1268       H  0.63594748  0.23192512  0.27751960     0.36300
C1269       C  0.61352818  0.76035888  0.47825303    -0.25500
C1270       C  0.62082453  0.77829542  0.44891255    -0.13500
C1271       C  0.63195204  0.75639392  0.42316044     0.37100
C1272       C  0.63290542  0.71682018  0.42590983    -0.24900
C1273       C  0.62344654  0.69843607  0.45428594    -0.14100
C1274       C  0.61479795  0.72061420  0.48131744     0.38200
N1275       N  0.60555876  0.70280151  0.51101646    -0.88400
H1276       H  0.60529365  0.77719074  0.49823462     0.19300
H1277       H  0.64020292  0.70034680  0.40524902     0.19300
N1278       N  0.64201360  0.77425957  0.39396264    -0.87400
H1279       H  0.59834183  0.72304905  0.52769055     0.36700
H1280       H  0.62389986  0.68996494  0.52171778     0.41800
H1281       H  0.62996610  0.76361884  0.37422609     0.41400
H1282       H  0.66384008  0.76664882  0.39079602     0.36300
C1283       C  0.87615806  0.25030302  0.05393189    -0.25500
C1284       C  0.87375312  0.26744649  0.08469015    -0.13500
C1285       C  0.86548510  0.24514777  0.11158562     0.37100
C1286       C  0.86215610  0.20602620  0.10800330    -0.24900
C1287       C  0.86755617  0.18805781  0.07815713    -0.14100
C1288       C  0.87327317  0.21068660  0.05033949     0.38200
N1289       N  0.87792976  0.19339188  0.01910738    -0.88400
H1290       H  0.88201233  0.26747715  0.03307487     0.19300
H1291       H  0.85700560  0.18934757  0.12940411     0.19300
N1292       N  0.86119347  0.26196350  0.14297045    -0.87400
H1293       H  0.88307367  0.21387716  0.00164013     0.36700
H1294       H  0.85816269  0.18143028  0.01158176     0.41800
H1295       H  0.87562154  0.24907239  0.15958053     0.41400
H1296       H  0.83995218  0.25601322  0.15032090     0.36300
N1297       N  0.51409782  0.09880737  0.52747023    -0.35700
N1298       N  0.53209304  0.05940271  0.58464071    -0.56300
N1299       N  0.57694771  0.01682221  0.54780811    -0.35700
N1300       N  0.56342411  0.05497984  0.48985069    -0.56300
C1301       C  0.48995850  0.10582311  0.54535900     0.27800
C1302       C  0.00719016  0.10255309  0.49542176     0.27800
C1303       C  0.58667195  0.01085268  0.57853029     0.27800
C1304       C  0.59382928  0.99630325  0.52733122     0.27800
C1305       C  0.50595081  0.07066903  0.59588335     0.36500
C1306       C  0.54686200  0.04296289  0.60943893     0.36500
C1307       C  0.54810492  0.07271881  0.96191579     0.36500
C1308       C  0.58094878  0.02948910  0.47542908     0.36500
C1309       C  0.97009045  0.12378876  0.52430680    -0.21000
C1310       C  0.98043280  0.12039130  0.49308792    -0.21000
C1311       C  0.60944756  0.98476237  0.57783076    -0.21000
C1312       C  0.61346154  0.97491841  0.54556415    -0.21000
C1313       C  0.50365412  0.06047965  0.62840405    -0.22100
C1314       C  0.52988760  0.04374066  0.63724714    -0.22100
C1315       C  0.55782530  0.06105400  0.93170314    -0.22100
C1316       C  0.58087695  0.03665954  0.93718375    -0.22100
C1317       C  0.48428838  0.08977915  0.57695163    -0.17400
C1318       C  0.51581152  0.07384338  0.47345910    -0.17400
C1319       C  0.59287872  0.99764084  0.49263604    -0.17400
C1320       C  0.57562626  0.02839526  0.60710989    -0.17400
H1321       H  0.94830339  0.13336678  0.52935875     0.15500
H1322       H  0.96760057  0.12459382  0.47102031     0.15500
H1323       H  0.62151997  0.97330350  0.59848027     0.15500
H1324       H  0.62985954  0.95565645  0.53646070     0.15500
H1325       H  0.48531696  0.06536077  0.64423571     0.13800
H1326       H  0.53519872  0.03212877  0.66104359     0.13800
H1327       H  0.54664961  0.06505202  0.90852005     0.13800
H1328       H  0.59175223  0.02095659  0.91827318     0.13800
H1329       H  0.53361171  0.08674358  0.53496335     0.27000
H1330       H  0.55904818  0.03318239  0.54170758     0.27000
N1331       N  0.99676402  0.98004443  0.93635965    -0.35700
N1332       N  0.94587954  0.02136335  0.47782167    -0.56300
N1333       N  0.90917043  0.95635926  0.95461126    -0.35700
N1334       N  0.95464207  0.92143902  0.91817665    -0.56300
C1335       C  0.00649921  0.00589877  0.46013067     0.27800
C1336       C  0.00928824  0.94633652  0.94355046     0.27800
C1337       C  0.89146597  0.97762501  0.47878961     0.27800
C1338       C  0.89191297  0.93740450  0.93316748     0.27800
C1339       C  0.97134386  0.03592402  0.48841604     0.36500
C1340       C  0.93312129  0.00677053  0.50446736     0.36500
C1341       C  0.97970779  0.90329354  0.91088405     0.36500
C1342       C  0.93231770  0.90211335  0.90471685     0.36500
C1343       C  0.52418911  0.98387694  0.48363560    -0.21000
C1344       C  0.52945534  0.95129772  0.96982158    -0.21000
C1345       C  0.86338408  0.97079004  0.96735470    -0.21000
C1346       C  0.86301446  0.94641031  0.94066960    -0.21000
C1347       C  0.97552228  0.02730054  0.52124084    -0.22100
C1348       C  0.95085527  0.01003033  0.53169668    -0.22100
C1349       C  0.97377760  0.87179568  0.89218623    -0.22100
C1350       C  0.94374179  0.87102116  0.88809406    -0.22100
C1351       C  0.99481935  0.04124722  0.46753737    -0.17400
C1352       C  0.00674630  0.91366504  0.92468939    -0.17400
C1353       C  0.90206414  0.91183491  0.90818881    -0.17400
C1354       C  0.90360605  0.99833061  0.50509474    -0.17400
H1355       H  0.53233247  0.99341885  0.50696916     0.15500
H1356       H  0.54089063  0.92926759  0.98320343     0.15500
H1357       H  0.84435766  0.99058288  0.47899470     0.15500
H1358       H  0.84331993  0.93639121  0.92901230     0.15500
H1359       H  0.99550859  0.02946831  0.53523094     0.13800
H1360       H  0.94683636  0.99954859  0.55604953     0.13800
H1361       H  0.98919922  0.85088195  0.88365435     0.13800
H1362       H  0.93183840  0.84870199  0.87586246     0.13800
H1363       H  0.98178169  0.98611574  0.91765383     0.27000
H1364       H  0.93163368  0.95476655  0.95720813     0.27000
O1365       O  0.94112474  0.40336926  0.63125002    -0.57000
C1366       C  0.85582561  0.40028129  0.64940606     0.75700
O1367       O  0.89826277  0.42609407  0.54613650    -0.58100
C1368       C  0.95949470  0.39135799  0.61090415     0.75600
C1369       C  0.88023273  0.31061678  0.58523425     0.78000
Cd1370     Cd  0.89691997  0.38751257  0.59832985     1.37500
O1371       O  0.88318244  0.39921262  0.65417280    -0.56900
O1372       O  0.89284444  0.32148587  0.61111055    -0.55800
C1373       C  0.89190273  0.45731144  0.55973343     0.78000
O1374       O  0.87616432  0.33553561  0.56319306    -0.58100
O1375       O  0.84715967  0.39477858  0.62034117    -0.56600
O1376       O  0.94932242  0.37160843  0.58772149    -0.56600
O1377       O  0.88447012  0.45478577  0.58914644    -0.55700
O1378       O  0.87792645  0.05114890  0.64316103    -0.57000
C1379       C  0.95289982  0.08590308  0.58601928     0.75700
O1380       O  0.88150828  0.05388328  0.52699152    -0.58100
C1381       C  0.85227957  0.04072483  0.63553428     0.75600
C1382       C  0.86866727  0.14929855  0.58044986     0.78000
Cd1383     Cd  0.88939764  0.07202847  0.58568850     1.37500
O1384       O  0.94285718  0.05553471  0.59805060    -0.56900
O1385       O  0.87581149  0.13379479  0.60730899    -0.55800
C1386       C  0.88830667  0.01932697  0.53101980     0.78000
O1387       O  0.86791759  0.12769877  0.55573421    -0.58100
O1388       O  0.93395526  0.11054374  0.57901212    -0.56600
O1389       O  0.84494572  0.04463916  0.60586203    -0.56600
O1390       O  0.89069333  0.00821973  0.56029632    -0.55700
N1391       N  0.49353512  0.48147944  0.59631367    -0.35700
N1392       N  0.53833433  0.42351258  0.61070451    -0.56300
N1393       N  0.58365424  0.46341233  0.57723119    -0.35700
N1394       N  0.54349511  0.52961627  0.56296765    -0.56300
C1395       C  0.48307094  0.44747860  0.58717613     0.27800
C1396       C  0.48134394  0.50691315  0.57573586     0.27800
C1397       C  0.60073403  0.44489443  0.59920585     0.27800
C1398       C  0.60020609  0.48837022  0.56059089     0.27800
C1399       C  0.51393858  0.40376921  0.61752375     0.36500
C1400       C  0.56124464  0.40421385  0.62320403     0.36500
C1401       C  0.51926037  0.53141328  0.04317005     0.36500
C1402       C  0.55909140  0.50619099  0.02746201     0.36500
C1403       C  0.96622390  0.44786821  0.56149172    -0.21000
C1404       C  0.96639363  0.48499122  0.55287054    -0.21000
C1405       C  0.62912538  0.45848291  0.59590196    -0.21000
C1406       C  0.62880245  0.48537796  0.57097396    -0.21000
C1407       C  0.52096918  0.37127163  0.63464520    -0.22100
C1408       C  0.55101110  0.37153080  0.63842398    -0.22100
C1409       C  0.51591008  0.52377058  0.01014983    -0.22100
C1410       C  0.54161036  0.50882174  0.99995852    -0.22100
C1411       C  0.48639287  0.41427231  0.60508476    -0.17400
C1412       C  0.49248691  0.54316172  0.57083011    -0.17400
C1413       C  0.58833598  0.51259540  0.53642541    -0.17400
C1414       C  0.59096155  0.41621182  0.62145318    -0.17400
H1415       H  0.95600435  0.42524742  0.54786915     0.15500
H1416       H  0.95786290  0.49617541  0.53022622     0.15500
H1417       H  0.64830563  0.45025665  0.60975336     0.15500
H1418       H  0.64715804  0.50157164  0.56234839     0.15500
H1419       H  0.50624060  0.34931874  0.64257671     0.13800
H1420       H  0.56382870  0.34939436  0.65003919     0.13800
H1421       H  0.49611752  0.52561241  0.99571286     0.13800
H1422       H  0.54657021  0.49924330  0.97561954     0.13800
H1423       H  0.50760500  0.48734938  0.61587796     0.27000
H1424       H  0.56179105  0.45860104  0.57190398     0.27000
N1425       N  0.97319238  0.59362496  0.00561547    -0.35700
N1426       N  0.95820638  0.55093701  0.94924591    -0.56300
N1427       N  0.91414728  0.50758413  0.98633920    -0.35700
N1428       N  0.92518368  0.55270063  0.54812695    -0.56300
C1429       C  0.99701391  0.60237276  0.98771864     0.27800
C1430       C  0.98090564  0.60163892  0.54322497     0.27800
C1431       C  0.90472663  0.50118530  0.95552137     0.27800
C1432       C  0.89445177  0.49634888  0.50874122     0.27800
C1433       C  0.98289520  0.56614167  0.93748127     0.36500
C1434       C  0.94365588  0.53499602  0.92417992     0.36500
C1435       C  0.94282235  0.56687707  0.57161810     0.36500
C1436       C  0.90838491  0.52569848  0.56169681     0.36500
C1437       C  0.52025035  0.61832562  0.00597606    -0.21000
C1438       C  0.50696487  0.62197166  0.54526170    -0.21000
C1439       C  0.88217638  0.47503286  0.95647289    -0.21000
C1440       C  0.87794616  0.46564457  0.98886501    -0.21000
C1441       C  0.98481185  0.55868995  0.90446721    -0.22100
C1442       C  0.95965111  0.53968260  0.89582675    -0.22100
C1443       C  0.93405282  0.55277581  0.60147529    -0.22100
C1444       C  0.91221056  0.52702623  0.59540172    -0.22100
C1445       C  0.00355249  0.58675315  0.95621944    -0.17400
C1446       C  0.97261030  0.57282120  0.56513730    -0.17400
C1447       C  0.89647370  0.49487467  0.54332178    -0.17400
C1448       C  0.91540021  0.51887956  0.92663734    -0.17400
H1449       H  0.54235200  0.62585812  0.00020058     0.15500
H1450       H  0.51949003  0.62531502  0.56762899     0.15500
H1451       H  0.87018208  0.46350126  0.93590436     0.15500
H1452       H  0.85715462  0.45836361  0.49895097     0.15500
H1453       H  0.00201174  0.56717944  0.88817749     0.13800
H1454       H  0.95446120  0.52963678  0.87156133     0.13800
H1455       H  0.94550469  0.55589125  0.62456306     0.13800
H1456       H  0.90316031  0.50888597  0.61386823     0.13800
H1457       H  0.95435669  0.58011030  0.99807412     0.27000
H1458       H  0.93165023  0.52446361  0.99239883     0.27000
O1459       O  0.55452017  0.90432028  0.89987736    -0.57000
C1460       C  0.64036588  0.91195924  0.88545752     0.75700
O1461       O  0.60705043  0.93296117  0.98530374    -0.58100
C1462       C  0.53665291  0.89397521  0.92136648     0.75600
C1463       C  0.61460418  0.81422926  0.94446255     0.78000
Cd1464     Cd  0.59869655  0.89267052  0.93371685     1.37500
O1465       O  0.61376389  0.90569852  0.87896348    -0.56900
O1466       O  0.60613582  0.82783642  0.91739875    -0.55800
C1467       C  0.60007177  0.96383004  0.97100541     0.78000
O1468       O  0.61605784  0.83738086  0.96817873    -0.58100
O1469       O  0.64820327  0.90845987  0.91504736    -0.56600
O1470       O  0.54724131  0.87592249  0.94554727    -0.56600
O1471       O  0.59370161  0.96037430  0.94119096    -0.55700
O1472       O  0.60998715  0.55061019  0.88827400    -0.57000
C1473       C  0.53511556  0.58459103  0.94315100     0.75700
O1474       O  0.60755841  0.55736480  0.00450846    -0.58100
C1475       C  0.63662341  0.54364632  0.89467974     0.75600
C1476       C  0.61739849  0.65112945  0.95042600     0.78000
Cd1477     Cd  0.59886642  0.57343659  0.94510229     1.37500
O1478       O  0.54636043  0.55303862  0.93550818    -0.56900
O1479       O  0.61442389  0.63422418  0.92335758    -0.55800
C1480       C  0.60349398  0.52206918  0.00134224     0.78000
O1481       O  0.61412048  0.63091920  0.97574870    -0.58100
O1482       O  0.55279565  0.61162884  0.94563849    -0.56600
O1483       O  0.64491406  0.55100918  0.92351466    -0.56600
O1484       O  0.60242101  0.51010206  0.97229675    -0.55700
N1485       N  0.71452515  0.84617334  0.77779007    -0.35700
N1486       N  0.66516128  0.89369975  0.74207215    -0.56300
N1487       N  0.65786457  0.93449389  0.79966474    -0.35700
N1488       N  0.70253234  0.88817496  0.83485672    -0.56300
C1489       C  0.72024131  0.84305072  0.74567384     0.27800
C1490       C  0.73919855  0.83666037  0.79473819     0.27800
C1491       C  0.63922272  0.95421277  0.77995280     0.27800
C1492       C  0.64883389  0.93875495  0.83063369     0.27800
C1493       C  0.68096544  0.87761678  0.71830992     0.36500
C1494       C  0.64774144  0.92016552  0.72812592     0.36500
C1495       C  0.72772118  0.87256964  0.84579020     0.36500
C1496       C  0.68922458  0.90438004  0.86034564     0.36500
C1497       C  0.74655366  0.82454339  0.74208767    -0.21000
C1498       C  0.75840692  0.82000048  0.77281706    -0.21000
C1499       C  0.61931262  0.97356190  0.79873382    -0.21000
C1500       C  0.62490963  0.96314167  0.83069908    -0.21000
C1501       C  0.67024663  0.88977629  0.68835291    -0.22100
C1502       C  0.64901374  0.91635307  0.69438666    -0.22100
C1503       C  0.73112989  0.88005627  0.87876619    -0.22100
C1504       C  0.70636010  0.89935788  0.88820788    -0.22100
C1505       C  0.71095829  0.87128373  0.72339678    -0.17400
C1506       C  0.74739493  0.85152827  0.82628737    -0.17400
C1507       C  0.66085071  0.92045837  0.85878337    -0.17400
C1508       C  0.63814323  0.95284955  0.74540411    -0.17400
H1509       H  0.75820535  0.82068826  0.71950890     0.15500
H1510       H  0.78037704  0.81009141  0.77690518     0.15500
H1511       H  0.60150562  0.99129125  0.79011459     0.15500
H1512       H  0.61276385  0.97260384  0.85166753     0.15500
H1513       H  0.68007891  0.88483208  0.66484998     0.13800
H1514       H  0.63886986  0.93353512  0.67561992     0.13800
H1515       H  0.74898551  0.87125915  0.89457187     0.13800
H1516       H  0.70198945  0.90917148  0.91264237     0.13800
H1517       H  0.69608944  0.85990790  0.78608296     0.27000
H1518       H  0.67619627  0.91960471  0.79262541     0.27000
N1519       N  0.73319159  0.96056842  0.68296439    -0.35700
N1520       N  0.78280712  0.91927049  0.72364744    -0.56300
N1521       N  0.82327030  0.98219938  0.70640094    -0.35700
N1522       N  0.77828831  0.01767234  0.66666932    -0.56300
C1523       C  0.72168303  0.93848410  0.70636611     0.27800
C1524       C  0.72288233  0.99571766  0.68862487     0.27800
C1525       C  0.83966797  0.95793876  0.72473226     0.27800
C1526       C  0.84045793  0.99824983  0.68362987     0.27800
C1527       C  0.75692125  0.90761037  0.73493469     0.36500
C1528       C  0.79806576  0.92965105  0.75047385     0.36500
C1529       C  0.75392644  0.03631366  0.65669298     0.36500
C1530       C  0.80130132  0.03622563  0.65448221     0.36500
C1531       C  0.70656211  0.96059924  0.72833052    -0.21000
C1532       C  0.70647339  0.99651618  0.71657994    -0.21000
C1533       C  0.86817378  0.95905065  0.71450865    -0.21000
C1534       C  0.86865755  0.98406625  0.68819473    -0.21000
C1535       C  0.75493118  0.91464040  0.76810145    -0.22100
C1536       C  0.78154393  0.92694841  0.77826073    -0.22100
C1537       C  0.76107035  0.06703774  0.63759666    -0.22100
C1538       C  0.79118074  0.06696271  0.63599381    -0.22100
C1539       C  0.73237801  0.90279702  0.71495062    -0.17400
C1540       C  0.72621351  0.02681020  0.66818924    -0.17400
C1541       C  0.83105788  0.02517143  0.65930526    -0.17400
C1542       C  0.82790881  0.93602704  0.75027455    -0.17400
H1543       H  0.69910874  0.95242916  0.75211927     0.15500
H1544       H  0.69748859  0.02104637  0.72859461     0.15500
H1545       H  0.88638968  0.94290906  0.72429143     0.15500
H1546       H  0.88771761  0.99062625  0.67404278     0.15500
H1547       H  0.73559282  0.91390508  0.78282560     0.13800
H1548       H  0.78762355  0.93513139  0.80279834     0.13800
H1549       H  0.74633535  0.08772336  0.62685109     0.13800
H1550       H  0.80407345  0.08800366  0.62353893     0.13800
H1551       H  0.74680225  0.95192961  0.66409940     0.27000
H1552       H  0.80152631  0.98847327  0.71095641     0.27000
O1553       O  0.63823591  0.39299631  0.64098787    -0.57000
C1554       C  0.71170113  0.35251947  0.69740878     0.75700
O1555       O  0.63803660  0.38243881  0.75626223    -0.58100
C1556       C  0.61151068  0.39974331  0.64622574     0.75600
C1557       C  0.62590815  0.29313438  0.70308811     0.78000
Cd1558     Cd  0.64787820  0.36839818  0.69786299     1.37500
O1559       O  0.70171621  0.38425899  0.68779142    -0.56900
O1560       O  0.63152997  0.30862816  0.67597233    -0.55800
C1561       C  0.64310927  0.41756976  0.75427197     0.78000
O1562       O  0.62796202  0.31389314  0.72818174    -0.58100
O1563       O  0.69254791  0.32790297  0.70270137    -0.56600
O1564       O  0.60263874  0.39186344  0.67451993    -0.56600
O1565       O  0.64507778  0.43091594  0.72571646    -0.55700
O1566       O  0.62371620  0.03710547  0.62879094    -0.57000
C1567       C  0.69892125  0.04865353  0.66423304     0.75700
O1568       O  0.62734747  0.10909871  0.71985559    -0.58100
C1569       C  0.59656870  0.03598771  0.63409859     0.75600
C1570       C  0.63340460  0.98913519  0.72714514     0.78000
Cd1571     Cd  0.63818864  0.05427242  0.68330005     1.37500
O1572       O  0.67849427  0.03438888  0.64747915    -0.56900
O1573       O  0.62274571  0.98989949  0.69871789    -0.55800
C1574       C  0.62236612  0.13141769  0.69611319     0.78000
O1575       O  0.64302399  0.02050291  0.73760121    -0.58100
O1576       O  0.69133111  0.07206601  0.68586139    -0.56600
O1577       O  0.58857635  0.04427915  0.66272638    -0.56600
O1578       O  0.62384789  0.11714393  0.66798965    -0.55700
N1579       N  0.75099136  0.45361618  0.84726035    -0.35700
N1580       N  0.70086564  0.41199769  0.80954190    -0.56300
N1581       N  0.66403029  0.48330454  0.82397366    -0.35700
N1582       N  0.70980971  0.51484201  0.86309066    -0.56300
C1583       C  0.76149452  0.42938724  0.82492476     0.27800
C1584       C  0.76372441  0.48715102  0.84074712     0.27800
C1585       C  0.64701228  0.46034638  0.80554453     0.27800
C1586       C  0.64714729  0.50111263  0.84608936     0.27800
C1587       C  0.72608854  0.39694061  0.79886149     0.36500
C1588       C  0.68776931  0.42671835  0.78272210     0.36500
C1589       C  0.73516133  0.53116974  0.87245580     0.36500
C1590       C  0.68778973  0.53537102  0.87547439     0.32100
C1591       C  0.77821150  0.44863746  0.80243644    -0.21000
C1592       C  0.78061998  0.48479350  0.81314754    -0.21000
C1593       C  0.61836006  0.46422782  0.81459787    -0.21000
C1594       C  0.61840415  0.48942002  0.84064881    -0.21000
C1595       C  0.72931977  0.40493437  0.76588332    -0.22100
C1596       C  0.70482512  0.42291927  0.75558941    -0.22100
C1597       C  0.72970394  0.56246577  0.89150204    -0.22100
C1598       C  0.69963492  0.56511643  0.89363228    -0.22100
C1599       C  0.75065146  0.39307989  0.81899725    -0.17400
C1600       C  0.76219980  0.51918275  0.86036939    -0.17400
C1601       C  0.65747026  0.52698633  0.87071796    -0.17400
C1602       C  0.65853358  0.43656207  0.78136448    -0.17400
H1603       H  0.78637785  0.43818845  0.77957855     0.15500
H1604       H  0.79207913  0.50729215  0.80090710     0.15500
H1605       H  0.59971794  0.44943438  0.80451757     0.15500
H1606       H  0.59921578  0.49732346  0.85403833     0.15500
H1607       H  0.74901795  0.40344747  0.75185652     0.13800
H1608       H  0.70065805  0.43428153  0.73146862     0.13800
H1609       H  0.74553095  0.58181211  0.90183946     0.13800
H1610       H  0.68802113  0.58746319  0.90602764     0.13800
H1611       H  0.73703405  0.44713619  0.86642985     0.27000
H1612       H  0.68612556  0.48712740  0.81982096     0.27000
N1613       N  0.77284287  0.33895551  0.75683041    -0.35700
N1614       N  0.79278122  0.37181036  0.69798908    -0.56300
N1615       N  0.83528841  0.41856941  0.73650410    -0.35700
N1616       N  0.82000139  0.38244608  0.79590381    -0.56300
C1617       C  0.75002831  0.32879763  0.73734409     0.27800
C1618       C  0.76509164  0.33410431  0.78816805     0.27800
C1619       C  0.84665436  0.42199053  0.70636350     0.27800
C1620       C  0.85234130  0.43852605  0.75751494     0.27800
C1621       C  0.76524363  0.36486068  0.68750285     0.36500
C1622       C  0.80671886  0.39065789  0.67424705     0.36500
C1623       C  0.80231565  0.36833284  0.81908289     0.36500
C1624       C  0.83681601  0.40936517  0.80993363     0.36500
C1625       C  0.72995418  0.31019366  0.75696003    -0.21000
C1626       C  0.73924084  0.31427325  0.78887232    -0.21000
C1627       C  0.87054870  0.44612503  0.70817219    -0.21000
C1628       C  0.87377820  0.45696194  0.74031986    -0.21000
C1629       C  0.76176213  0.37903189  0.65609247    -0.22100
C1630       C  0.78823804  0.39461470  0.64741941    -0.22100
C1631       C  0.81090411  0.38253091  0.84912723    -0.22100
C1632       C  0.83260417  0.40839295  0.84352239    -0.22100
C1633       C  0.74346319  0.34614868  0.70619331    -0.17400
C1634       C  0.77260194  0.36145648  0.81190503    -0.17400
C1635       C  0.84972265  0.43962442  0.79194684    -0.17400
C1636       C  0.83548817  0.40515999  0.67716428    -0.17400
H1637       H  0.70896626  0.29879526  0.75028655     0.15500
H1638       H  0.72621274  0.30865099  0.81018197     0.15500
H1639       H  0.88380125  0.45622287  0.68833142     0.15500
H1640       H  0.89062525  0.47521595  0.75011368     0.15500
H1641       H  0.74231817  0.37806616  0.64092172     0.13800
H1642       H  0.79267975  0.40914629  0.62475288     0.13800
H1643       H  0.79929803  0.37955760  0.87184120     0.13800
H1644       H  0.84124819  0.42687041  0.86213646     0.13800
H1645       H  0.79008885  0.35570545  0.75090657     0.27000
H1646       H  0.81602318  0.40548344  0.74198791     0.27000
O1647       O  0.86704631  0.52793994  0.90505439    -0.57000
C1648       C  0.79042039  0.53894098  0.86383402     0.75700
O1649       O  0.86510689  0.59872806  0.81251314    -0.58100
C1650       C  0.89415139  0.52584728  0.89954933     0.75600
C1651       C  0.85590943  0.47631913  0.80886137     0.78000
Cd1652     Cd  0.85232871  0.54397181  0.84954545     1.37500
O1653       O  0.80962505  0.52609960  0.88330734    -0.56900
O1654       O  0.86495418  0.47747672  0.83794193    -0.55800
C1655       C  0.86656403  0.62251764  0.83565454     0.78000
O1656       O  0.84932204  0.50812545  0.79623822    -0.58100
O1657       O  0.79957577  0.55982930  0.84109622    -0.56600
O1658       O  0.90186024  0.53281399  0.87054122    -0.56600
O1659       O  0.86289694  0.60926067  0.86399852    -0.55700
O1660       O  0.85409910  0.89096985  0.88849047    -0.57000
C1661       C  0.77931424  0.85337085  0.83510527     0.75700
O1662       O  0.84867817  0.87970281  0.77332748    -0.58100
C1663       C  0.88112709  0.89530172  0.88355530     0.75600
C1664       C  0.86311063  0.78590238  0.83006162     0.78000
Cd1665     Cd  0.84302861  0.86393829  0.83290639     1.37500
O1666       O  0.79103958  0.88299777  0.84663320    -0.56900
O1667       O  0.85839415  0.80304466  0.85661641    -0.55800
C1668       C  0.84381104  0.91485924  0.77630189     0.78000
O1669       O  0.86032595  0.80564691  0.80427668    -0.58100
O1670       O  0.79689019  0.82727480  0.82804284    -0.56600
O1671       O  0.88975489  0.88512602  0.85564958    -0.56600
O1672       O  0.84397710  0.92724740  0.80520257    -0.55700
C1673       C  0.86359148  0.72332339  0.80107432    -0.25500
C1674       C  0.86973990  0.74449113  0.82940666    -0.13500
C1675       C  0.87919551  0.72513174  0.85785961     0.37100
C1676       C  0.87968780  0.68535810  0.85826225    -0.24900
C1677       C  0.87105688  0.66400349  0.83094343    -0.14100
C1678       C  0.86404847  0.68326122  0.80151520     0.38200
N1679       N  0.85619839  0.66240641  0.77265099    -0.88400
H1680       H  0.85670263  0.73797672  0.77901421     0.19300
H1681       H  0.88595517  0.67088064  0.88063394     0.19300
N1682       N  0.88757260  0.74584562  0.88663123    -0.87400
H1683       H  0.85253532  0.68083368  0.75298905     0.36700
H1684       H  0.83632775  0.64904861  0.77704152     0.41800
H1685       H  0.90621543  0.76138010  0.88100969     0.41400
H1686       H  0.89348942  0.72737302  0.90559383     0.36300
C1687       C  0.60941099  0.23470727  0.67597426    -0.25500
C1688       C  0.61908536  0.25227761  0.70470504    -0.13500
C1689       C  0.62571311  0.22979462  0.73248481     0.37100
C1690       C  0.62419973  0.19004490  0.73003527    -0.24900
C1691       C  0.61696489  0.17252676  0.70027358    -0.14100
C1692       C  0.60824401  0.19525195  0.67336776     0.38200
N1693       N  0.59933450  0.17830314  0.64296958    -0.88400
H1694       H  0.60385714  0.25189390  0.65482499     0.19300
H1695       H  0.63071234  0.17274221  0.75077300     0.19300
N1696       N  0.63566037  0.24702258  0.76235500    -0.87400
H1697       H  0.59462147  0.19901757  0.62537679     0.36700
H1698       H  0.57991254  0.16376698  0.64710590     0.41800
H1699       H  0.65611671  0.25883564  0.75799817     0.41400
H1700       H  0.63886866  0.22651274  0.78052071     0.36300
C1701       C  0.61860483  0.75461715  0.97791323    -0.25500
C1702       C  0.62114621  0.77303460  0.94763019    -0.13500
C1703       C  0.62701230  0.75106403  0.91970050     0.37100
C1704       C  0.62775491  0.71152417  0.92192393    -0.24900
C1705       C  0.62262656  0.69274999  0.95152027    -0.14100
C1706       C  0.61921578  0.71463603  0.98019941     0.38200
N1707       N  0.61490954  0.69643207  0.01117475    -0.88400
H1708       H  0.61454587  0.77130358  0.99955343     0.19300
H1709       H  0.63113277  0.69542214  0.89979266     0.19300
N1710       N  0.63157484  0.76870655  0.88864496    -0.87400
H1711       H  0.61169546  0.71655848  0.02947593     0.36700
H1712       H  0.63421510  0.68210992  0.01726695     0.41800
H1713       H  0.61580994  0.75856302  0.87226216     0.41400
H1714       H  0.65204915  0.76037167  0.88025882     0.36300
C1715       C  0.87250007  0.25195943  0.55174610    -0.25500
C1716       C  0.87107070  0.27060698  0.58190532    -0.13500
C1717       C  0.86322646  0.24983427  0.60984992     0.37100
C1718       C  0.85968739  0.21057007  0.60793786    -0.24900
C1719       C  0.86405538  0.19104719  0.57859645    -0.14100
C1720       C  0.86911418  0.21222154  0.54975959     0.38200
N1721       N  0.87277603  0.19326735  0.51908087    -0.88400
H1722       H  0.87801349  0.26800014  0.53011474     0.19300
H1723       H  0.85509130  0.19502622  0.63012354     0.19300
N1724       N  0.85951035  0.26846827  0.64057734    -0.87400
H1725       H  0.87763527  0.21275419  0.50068835     0.36700
H1726       H  0.85271066  0.18129392  0.51267695     0.41800
H1727       H  0.87414306  0.25644539  0.65744185     0.41400
H1728       H  0.83836099  0.26317793  0.64858113     0.36300
loop_ 
_geom_bond_atom_site_label_1 
_geom_bond_atom_site_label_2 
_geom_bond_distance 
_geom_bond_site_symmetry_2 
_ccdc_geom_bond_type 
N1           H33   1.033       .  S
N1            C5   1.359   1_455  A
N1          C870   1.347   1_554  A
N2            C9   1.351       .  A
N2           C10   1.345       .  A
N3           H34   1.032       .  S
N3            C8   1.357   1_545  A
N3            C7   1.345       .  A
N4           C12   1.348       .  A
N4          C443   1.346       .  A
C5           C21   1.444       .  A
C5          C877   1.397       .  A
C6          N865   1.349   1_556  A
C6           C14   1.382       .  A
C6          C886   1.411       .  A
C7           C15   1.394   1_545  A
C7           C24   1.426       .  A
C8           C23   1.419   1_554  A
C8           C16   1.382       .  A
C9           C21   1.425   1_455  A
C9           C17   1.384       .  A
C10          C24   1.422       .  A
C10          C18   1.388       .  A
C11         N436   1.347       .  A
C11          C19   1.384       .  A
C11         C454   1.409       .  A
C12          C23   1.432   1_545  A
C12         C452   1.391       .  A
C13          C14   1.375   1_554  A
C13         C869   1.396       .  A
C13          H25   1.078       .  S
C14          H26   1.083       .  S
C15          C16   1.382       .  A
C15          H27   1.082       .  S
C16          H28   1.082       .  S
C17          C18   1.384       .  A
C17          H29   1.082   1_455  S
C18          H30   1.081       .  S
C19          C20   1.377       .  A
C19          H31   1.083       .  S
C20         C444   1.392       .  A
C20          H32   1.078       .  S
C21         C947   1.508       .  S
C22         C870   1.409       .  A
C22         C443   1.407       .  A
C22         C919   1.529   1_455  S
C23         C603   1.507       .  S
C24         C273   1.481       .  S
N35          H67   1.045       .  S
N35          C40   1.344       .  A
N35         C471   1.343   1_565  A
N36          C43   1.345       .  A
N36          C44   1.347       .  A
N37          H68   1.041       .  S
N37          C42   1.352       .  A
N37         C473   1.355       .  A
N38          C45   1.352       .  A
N38          C46   1.344       .  A
C39         N467   1.347   1_545  A
C39          C55   1.395       .  A
C39         C911   1.383   1_545  A
C40          C56   1.386       .  A
C40         C912   1.380       .  A
C41         N469   1.354       .  A
C41          C58   1.411   1_565  A
C41         C481   1.377       .  A
C42          C57   1.437       .  A
C42          C50   1.397       .  A
C43          C55   1.394       .  A
C43          C51   1.388   1_556  A
C44          C58   1.387       .  A
C44          C52   1.378   1_556  A
C45          C53   1.378       .  A
C45          C56   1.403       .  A
C46          C54   1.396       .  A
C46          C57   1.429       .  A
C47         C903   1.383   1_565  A
C47         C480   1.357       .  A
C47          H59   1.073   1_556  S
C48         C904   1.379       .  A
C48         C479   1.358       .  A
C48          H60   1.081       .  S
C49          C50   1.395       .  A
C49         C473   1.380       .  A
C49         H493   1.082       .  S
C50          H62   1.081       .  S
C51          C52   1.357       .  A
C51          H63   1.080       .  S
C52          H64   1.080       .  S
C53          C54   1.385       .  A
C53          H65   1.082       .  S
C54          H66   1.082       .  S
C55         C886   1.528       .  S
C56        C1030   1.472       .  S
C57         C367   1.490       .  S
C58          C90   1.477   1_556  S
H61         C481   1.082       .  S
O69          C72   1.264       .  A
O69         Cd74   2.489       .  S
C70         C340   1.488       .  S
C70          O79   1.267       .  A
C70          O75   1.268       .  A
O71          C77   1.269       .  A
O71         Cd74   2.569       .  S
C72         C979   1.475       .  S
C72          O80   1.265       .  A
C73         C420   1.487       .  S
C73          O78   1.270       .  A
C73          O76   1.264       .  A
Cd74         O81   2.460       .  S
Cd74         O80   2.481       .  S
Cd74         O79   2.450       .  S
Cd74         O75   2.449       .  S
Cd74         O78   2.507       .  S
Cd74         O76   2.428       .  S
C77         C151   1.513       .  S
C77          O81   1.259       .  A
O82          C85   1.270       .  A
O82         Cd87   2.506       .  S
C83         C885   1.507       .  S
C83          O92   1.259       .  A
C83          O88   1.268       .  A
O84          C90   1.267       .  A
O84         Cd87   2.503       .  S
C85         C245   1.488       .  S
C85          O93   1.265       .  A
C86         C423   1.488       .  S
C86          O91   1.268       .  A
C86          O89   1.266       .  A
Cd87         O94   2.487       .  S
Cd87         O93   2.408       .  S
Cd87         O92   2.494       .  S
Cd87         O88   2.558       .  S
Cd87         O91   2.495       .  S
Cd87         O89   2.425       .  S
C90          O94   1.264       .  A
N95         H127   1.045   1_655  S
N95         C100   1.349       .  A
N95          C99   1.351       .  A
N96         C103   1.352       .  A
N96         C104   1.345       .  A
N97         H128   1.041       .  S
N97         C102   1.354       .  A
N97         C101   1.350       .  A
N98         C537   1.344       .  A
N98         C538   1.348       .  A
C99         C115   1.394       .  A
C99         C971   1.379       .  A
C100        C116   1.397       .  A
C100        C972   1.383       .  A
C101        C109   1.397       .  A
C101        C118   1.433       .  A
C102        C117   1.409       .  A
C102        C110   1.379       .  A
C103        C115   1.404   1_455  A
C103        C111   1.379       .  A
C104        C118   1.429       .  A
C104        C112   1.396       .  A
C105        N530   1.347       .  A
C105        C113   1.388       .  A
C105        C548   1.397   1_455  A
C106        N530   1.349       .  A
C106        C114   1.376       .  A
C106        C549   1.388       .  A
C107        C108   1.359       .  A
C107        C963   1.381       .  A
C107        H119   1.081       .  S
C108        C964   1.384       .  A
C108        H120   1.074       .  S
C109        C110   1.393       .  A
C109        H121   1.081       .  S
C110        H122   1.082       .  S
C111        C112   1.385       .  A
C111        H123   1.082       .  S
C112        H124   1.082       .  S
C113        C114   1.358       .  A
C113        H125   1.080   1_455  S
C114        H126   1.080       .  S
C115        C936   1.477       .  S
C116        C537   1.394   1_655  A
C116       C1014   1.530       .  S
C117        C538   1.387       .  A
C117        C616   1.480       .  S
C118        C260   1.486       .  S
N129        H161   1.032       .  S
N129        C133   1.362       .  A
N129        C566   1.349       .  A
N130        C137   1.351       .  A
N130        C138   1.346       .  A
N131        H162   1.030       .  S
N131        C135   1.349       .  A
N131        C568   1.359       .  A
N132        C139   1.346       .  A
N132        C140   1.349       .  A
C133        C149   1.444       .  A
C133       C1005   1.395       .  A
C134        N561   1.348       .  A
C134        C150   1.409       .  A
C134       C1006   1.382       .  A
C135        C143   1.392       .  A
C135        C152   1.429       .  A
C136        N563   1.363   1_554  A
C136        C151   1.428       .  A
C136        C576   1.382   1_554  A
C137        C149   1.423       .  A
C137        C145   1.383       .  A
C138        C152   1.426       .  A
C138        C146   1.390       .  A
C139        C147   1.383       .  A
C139        C150   1.405       .  A
C140        C148   1.393       .  A
C140        C151   1.432       .  A
C141        C997   1.395   1_455  A
C141        C574   1.377       .  A
C141        H153   1.078       .  S
C142        C998   1.382   1_455  A
C142        C573   1.376       .  A
C142        H154   1.083       .  S
C143        C144   1.381       .  A
C143        H155   1.082       .  S
C144        C568   1.382       .  A
C144        H588   1.082       .  S
C145        C146   1.383       .  A
C145        H157   1.082       .  S
C146        H158   1.080       .  S
C147        C148   1.376       .  A
C147        H159   1.083       .  S
C148        H160   1.077       .  S
C149       C1041   1.509       .  S
C150        C980   1.524       .  S
C152        C354   1.492       .  S
H156        C576   1.082       .  S
O163        C166   1.266       .  A
O163       Cd168   2.500       .  S
C164        C211   1.490       .  S
C164        O173   1.267       .  A
C164        O169   1.271       .  A
O165        C171   1.269       .  A
O165       Cd168   2.518       .  S
C166        C920   1.479       .  S
C166        O174   1.263       .  A
C167        C406   1.484       .  S
C167        O172   1.270       .  A
C167        O170   1.264       .  A
Cd168       O175   2.475       .  S
Cd168       O174   2.508       .  S
Cd168       O173   2.475       .  S
Cd168       O169   2.436       .  S
Cd168       O172   2.504       .  S
Cd168       O170   2.431       .  S
C171        C455   1.500       .  S
C171        O175   1.260       .  A
O176        C179   1.271       .  A
O176       Cd181   2.536       .  S
C177       C1013   1.512       .  S
C177        O186   1.259       .  A
C177        O182   1.268       .  A
O178        C184   1.267       .  A
O178       Cd181   2.518       .  S
C179        C305   1.503       .  S
C179        O187   1.267       .  A
C180        C409   1.491       .  S
C180        O185   1.268       .  A
C180        O183   1.267       .  A
Cd181       O188   2.493       .  S
Cd181       O187   2.457       .  S
Cd181       O186   2.516       .  S
Cd181       O182   2.556       .  S
Cd181       O185   2.481       .  S
Cd181       O183   2.458       .  S
C184        C549   1.480       .  S
C184        O188   1.263       .  A
N189        H221   1.034       .  S
N189        C194   1.360       .  A
N189        C193   1.349       .  A
N190        C197   1.348       .  A
N190        C198   1.352       .  A
N191        H222   1.032       .  S
N191        C196   1.348       .  A
N191        C195   1.357       .  A
N192        C199   1.351       .  A
N192        C200   1.347       .  A
C193        C201   1.383       .  A
C193        C209   1.412       .  A
C194        C210   1.440       .  A
C194        C202   1.396       .  A
C195        C203   1.383       .  A
C195        C212   1.421       .  A
C196        C211   1.425       .  A
C196        C204   1.391       .  A
C197        C209   1.412       .  A
C197        C205   1.384       .  A
C198        C212   1.433       .  A
C198        C206   1.391       .  A
C199        C207   1.384       .  A
C199        C210   1.423       .  A
C200        C208   1.389       .  A
C200        C211   1.425       .  A
C201        C202   1.374       .  A
C201        H213   1.083       .  S
C202        H214   1.078       .  S
C203        C204   1.383       .  A
C203        H215   1.082       .  S
C204        H216   1.082       .  S
C205        C206   1.377       .  A
C205        H217   1.083       .  S
C206        H218   1.078       .  S
C207        C208   1.385       .  A
C207        H219   1.082       .  S
C208        H220   1.081       .  S
C209        C243   1.529       .  S
C210        C365   1.502       .  S
C212        C274   1.503       .  S
N223        H255   1.045       .  S
N223        C228   1.348       .  A
N223        C227   1.346       .  A
N224        C231   1.346       .  A
N224        C232   1.348       .  A
N225        H256   1.040       .  S
N225        C230   1.351       .  A
N225        C229   1.353       .  A
N226        C233   1.352       .  A
N226        C234   1.345       .  A
C227        C235   1.384       .  A
C227        C243   1.392       .  A
C228        C244   1.389   1_565  A
C228        C236   1.380       .  A
C229        C237   1.379       .  A
C229        C246   1.407       .  A
C230        C245   1.433   1_565  A
C230        C238   1.397       .  A
C231        C243   1.395       .  A
C231        C239   1.388       .  A
C232        C246   1.387       .  A
C232        C240   1.376       .  A
C233        C241   1.378       .  A
C233        C244   1.400       .  A
C234        C242   1.395       .  A
C234        C245   1.427       .  A
C235        C236   1.354       .  A
C235        H247   1.078       .  S
C236        H248   1.080   1_565  S
C237        C238   1.392       .  A
C237        H249   1.082       .  S
C238        H250   1.080       .  S
C239        C240   1.357       .  A
C239        H251   1.080       .  S
C240        H252   1.080       .  S
C241        C242   1.383       .  A
C241        H253   1.082       .  S
C242        H254   1.082       .  S
C244        C271   1.472       .  S
C246        C372   1.475       .  S
O257        C260   1.270       .  A
O257       Cd262   2.503       .  S
C258        C337   1.511       .  S
C258        O267   1.258       .  A
C258        O263   1.271       .  A
O259        C265   1.265       .  A
O259       Cd262   2.484       .  S
C260        O268   1.264       .  A
C261        C392   1.475       .  S
C261        O266   1.267       .  A
C261        O264   1.265       .  A
Cd262       O269   2.500       .  S
Cd262       O268   2.406       .  S
Cd262       O267   2.464       .  S
Cd262       O263   2.589       .  S
Cd262       O266   2.461       .  S
Cd262       O264   2.424       .  S
C265        C306   1.474       .  S
C265        O269   1.266       .  A
O270        C273   1.268       .  A
O270       Cd275   2.391       .  S
C271        O280   1.264       .  A
C271        O276   1.262       .  A
O272        C278   1.269       .  A
O272       Cd275   2.498       .  S
C273        O281   1.268       .  A
C274        O279   1.270   1_565  A
C274        O277   1.259       .  A
Cd275       O282   2.427       .  S
Cd275       O281   2.455       .  S
Cd275       O280   2.504       .  S
Cd275       O276   2.466       .  S
Cd275       O279   2.543       .  S
Cd275       O277   2.470   1_545  S
C278        C395   1.483       .  S
C278        O282   1.262       .  A
N283        H315   1.045       .  S
N283        C288   1.347       .  A
N283        C287   1.346       .  A
N284        C291   1.348       .  A
N284        C292   1.349       .  A
N285        H316   1.037       .  S
N285        C290   1.353       .  A
N285        C289   1.351       .  A
N286        C293   1.351       .  A
N286        C294   1.347       .  A
C287        C295   1.386       .  A
C287        C303   1.394       .  A
C288        C304   1.394       .  A
C288        C296   1.384       .  A
C289        C297   1.379       .  A
C289        C306   1.411       .  A
C290        C305   1.441       .  A
C290        C298   1.398       .  A
C291        C303   1.398       .  A
C291        C299   1.390       .  A
C292        C306   1.388       .  A
C292        C300   1.376       .  A
C293        C301   1.379       .  A
C293        C304   1.410       .  A
C294        C302   1.395       .  A
C294        C305   1.436       .  A
C295        C296   1.359       .  A
C295        H307   1.080       .  S
C296        H308   1.081       .  S
C297        C298   1.396       .  A
C297        H309   1.082       .  S
C298        H310   1.080       .  S
C299        C300   1.352       .  A
C299        H311   1.077       .  S
C300        H312   1.081       .  S
C301        C302   1.389       .  A
C301        H313   1.082       .  S
C302        H314   1.082       .  S
C303        C338   1.527       .  S
C304        C352   1.476       .  S
N317        H349   1.027       .  S
N317        C322   1.343       .  A
N317        C321   1.354       .  A
N318        C325   1.355       .  A
N318        C326   1.343       .  A
N319        H350   1.029       .  S
N319        C324   1.366       .  A
N319        C323   1.351       .  A
N320        C327   1.347       .  A
N320        C328   1.347       .  A
C321        C329   1.394       .  A
C321        C337   1.435       .  A
C322        C338   1.406       .  A
C322        C330   1.380       .  A
C323        C331   1.385       .  A
C323        C340   1.425       .  A
C324        C339   1.437       .  A
C324        C332   1.388       .  A
C325        C337   1.426       .  A
C325        C333   1.383       .  A
C326        C340   1.423       .  A
C326        C334   1.391       .  A
C327        C335   1.380       .  A
C327        C338   1.410       .  A
C328        C336   1.396       .  A
C328        C339   1.436       .  A
C329        C330   1.380       .  A
C329        H341   1.078       .  S
C330        H342   1.082       .  S
C331        C332   1.381       .  A
C331        H343   1.082       .  S
C332        H344   1.081       .  S
C333        C334   1.385       .  A
C333        H345   1.082       .  S
C334        H346   1.081       .  S
C335        C336   1.378       .  A
C335        H347   1.083       .  S
C336        H348   1.078       .  S
C339        C355   1.519       .  S
O351        C354   1.268       .  A
O351       Cd356   2.424       .  S
C352        O361   1.263       .  A
C352        O357   1.264       .  A
O353        C359   1.270       .  A
O353       Cd356   2.525       .  S
C354        O362   1.268       .  A
C355        O360   1.271       .  A
C355        O358   1.258       .  A
Cd356       O363   2.422       .  S
Cd356       O362   2.482       .  S
Cd356       O361   2.501       .  S
Cd356       O357   2.488       .  S
Cd356       O360   2.570       .  S
Cd356       O358   2.462       .  S
C359        C381   1.488       .  S
C359        O363   1.264       .  A
O364        C367   1.268       .  A
O364       Cd369   2.507       .  S
C365        O374   1.259       .  A
C365        O370   1.266       .  A
O366        C372   1.265       .  A
O366       Cd369   2.495       .  S
C367        O375   1.266       .  A
C368        C378   1.488       .  S
C368        O373   1.267       .  A
C368        O371   1.266       .  A
Cd369       O376   2.497       .  S
Cd369       O375   2.414       .  S
Cd369       O374   2.498       .  S
Cd369       O370   2.542       .  S
Cd369       O373   2.502       .  S
Cd369       O371   2.432       .  S
C372        O376   1.264       .  A
C377        C378   1.409       .  A
C377        C382   1.414       .  A
C377        H384   1.084       .  S
C378        C379   1.412       .  A
C379        C380   1.402       .  A
C379        N386   1.438       .  S
C380        C381   1.404       .  A
C380        H385   1.084       .  S
C381        C382   1.415       .  A
C382        N383   1.437       .  S
N383        H387   1.046       .  S
N383        H388   1.046       .  S
N386        H389   1.046       .  S
N386        H390   1.046       .  S
C391        C392   1.401       .  A
C391        C396   1.402       .  A
C391        H398   1.084       .  S
C392        C393   1.413       .  A
C393        C394   1.407       .  A
C393        N400   1.438       .  S
C394        C395   1.404       .  A
C394        H399   1.083       .  S
C395        C396   1.415       .  A
C396        N397   1.438       .  S
N397        H401   1.046       .  S
N397        H402   1.046       .  S
N400        H403   1.046       .  S
N400        H404   1.046       .  S
C405        C406   1.403       .  A
C405        C410   1.411       .  A
C405        H412   1.084       .  S
C406        C407   1.410       .  A
C407        C408   1.402       .  A
C407        N414   1.433       .  S
C408        C409   1.405       .  A
C408        H413   1.084       .  S
C409        C410   1.418       .  A
C410        N411   1.437       .  S
N411        H415   1.046       .  S
N411        H416   1.045       .  S
N414        H417   1.046       .  S
N414        H418   1.046       .  S
C419        C420   1.406       .  A
C419        C424   1.413       .  A
C419        H426   1.083       .  S
C420        C421   1.412       .  A
C421        C422   1.398       .  A
C421        N428   1.433       .  S
C422        C423   1.403       .  A
C422        H427   1.084       .  S
C423        C424   1.416       .  A
C424        N425   1.437       .  S
N425        H429   1.046   1_554  S
N425        H430   1.046       .  S
N428        H431   1.046       .  S
N428        H432   1.046       .  S
N433        H465   1.032       .  S
N433       C1302   1.347       .  A
N433        C437   1.359   1_455  A
N434        C441   1.351       .  A
N434        C442   1.344       .  A
N435        H466   1.029       .  S
N435        C440   1.359   1_545  A
N435        C439   1.347       .  A
N436        C444   1.349       .  A
C437       C1309   1.396       .  A
C437        C453   1.443       .  A
C438       N1297   1.347       .  A
C438       C1318   1.406       .  A
C438        C446   1.381       .  A
C439        C447   1.391   1_545  A
C439        C456   1.426       .  A
C440        C455   1.424       .  A
C440        C448   1.384       .  A
C441        C453   1.424   1_455  A
C441        C449   1.384       .  A
C442        C456   1.424       .  A
C442        C450   1.390       .  A
C443        C451   1.382       .  A
C444        C455   1.431   1_545  A
C445       C1301   1.396       .  A
C445        C446   1.374       .  A
C445        H457   1.078       .  S
C446        H458   1.083       .  S
C447        C448   1.381       .  A
C447        H459   1.082       .  S
C448        H460   1.082       .  S
C449        C450   1.383       .  A
C449        H461   1.082   1_455  S
C450        H462   1.081       .  S
C451        C452   1.376       .  A
C451        H463   1.082       .  S
C452        H464   1.079       .  S
C453       C1379   1.509       .  S
C454       C1302   1.408       .  A
C454       C1351   1.526   1_455  S
C456        C705   1.485       .  S
N467        H499   1.045       .  S
N467        C472   1.349       .  A
N468        C475   1.345       .  A
N468        C476   1.346       .  A
N469        H500   1.038       .  S
N469        C474   1.354       .  A
N470        C477   1.351       .  A
N470        C478   1.347       .  A
C471       C1343   1.387   1_545  A
C471        C487   1.390       .  A
C472        C488   1.395       .  A
C472       C1344   1.382       .  A
C473        C490   1.412       .  A
C474        C489   1.444       .  A
C474        C482   1.400       .  A
C475        C487   1.394       .  A
C475        C483   1.389       .  A
C476        C490   1.386   1_545  A
C476        C484   1.378       .  A
C477        C485   1.379       .  A
C477        C488   1.407       .  A
C478        C486   1.396       .  A
C478        C489   1.436       .  A
C479       C1335   1.385   1_565  A
C479        H491   1.077       .  S
C480       C1336   1.382       .  A
C480        H492   1.081       .  S
C481        C482   1.392       .  A
C482        H494   1.079       .  S
C483        C484   1.361       .  A
C483        H495   1.080       .  S
C484        H496   1.081   1_545  S
C485        C486   1.387       .  A
C485        H497   1.082       .  S
C486        H498   1.081       .  S
C487       C1318   1.522       .  S
C488       C1462   1.477       .  S
C489        C799   1.502       .  S
C490        C522   1.479   1_565  S
O501        C504   1.266       .  A
O501       Cd506   2.480       .  S
C502        C772   1.486       .  S
C502        O511   1.266       .  A
C502        O507   1.270       .  A
O503        C509   1.271       .  A
O503       Cd506   2.542       .  S
C504       C1411   1.476       .  S
C504        O512   1.265       .  A
C505        C852   1.492       .  S
C505        O510   1.272       .  A
C505        O508   1.264       .  A
Cd506       O513   2.490       .  S
Cd506       O512   2.506       .  S
Cd506       O511   2.450       .  S
Cd506       O507   2.441       .  S
Cd506       O510   2.537       .  S
Cd506       O508   2.425       .  S
C509        C583   1.507       .  S
C509        O513   1.260       .  A
O514        C517   1.269       .  A
O514       Cd519   2.516       .  S
C515       C1317   1.498       .  S
C515        O524   1.258       .  A
C515        O520   1.267       .  A
O516        C522   1.268       .  A
O516       Cd519   2.512       .  S
C517        C677   1.491       .  S
C517        O525   1.264       .  A
C518        C855   1.489       .  S
C518        O523   1.270       .  A
C518        O521   1.266       .  A
Cd519       O526   2.492       .  S
Cd519       O525   2.409       .  S
Cd519       O524   2.480       .  S
Cd519       O520   2.540       .  S
Cd519       O523   2.509       .  S
Cd519       O521   2.412       .  S
C522        O526   1.264       .  A
N527        H559   1.045   1_655  S
N527        C532   1.344       .  A
N527        C531   1.347       .  A
N528        C535   1.354       .  A
N528        C536   1.346       .  A
N529        H560   1.040       .  S
N529        C534   1.353       .  A
N529        C533   1.350       .  A
C531       C1403   1.380       .  A
C531        C547   1.387       .  A
C532        C548   1.392       .  A
C532       C1404   1.385       .  A
C533        C541   1.398       .  A
C533        C550   1.434       .  A
C534        C549   1.409       .  A
C534        C542   1.379       .  A
C535        C547   1.407   1_455  A
C535        C543   1.379       .  A
C536        C550   1.430       .  A
C536        C544   1.395       .  A
C537        C545   1.388       .  A
C538        C546   1.377       .  A
C539       C1395   1.379       .  A
C539        C540   1.359       .  A
C539        H551   1.081       .  S
C540       C1396   1.387       .  A
C540        H552   1.076       .  S
C541        C542   1.393       .  A
C541        H553   1.080       .  S
C542        H554   1.082       .  S
C543        C544   1.386       .  A
C543        H555   1.082       .  S
C544        H556   1.082       .  S
C545        C546   1.358       .  A
C545        H557   1.079   1_454  S
C546        H558   1.080   1_554  S
C547       C1368   1.478       .  S
C548       C1446   1.527       .  S
C550        C692   1.488       .  S
N561        H593   1.035   1_554  S
N561        C565   1.360   1_554  A
N562        C569   1.352       .  A
N562        C570   1.345       .  A
N563        H594   1.032       .  S
N563        C567   1.350       .  A
N564        C571   1.348       .  A
N564        C572   1.352       .  A
C565       C1437   1.394   1_556  A
C565        C581   1.438       .  A
C566        C582   1.416       .  A
C566       C1438   1.384       .  A
C567        C575   1.392       .  A
C567        C584   1.431       .  A
C568        C583   1.422       .  A
C569        C581   1.419       .  A
C569        C577   1.382       .  A
C570        C584   1.424       .  A
C570        C578   1.392       .  A
C571        C579   1.386       .  A
C571        C582   1.412       .  A
C572        C580   1.390       .  A
C572        C583   1.432       .  A
C573       C1429   1.394   1_454  A
C573        H585   1.078       .  S
C574       C1430   1.382   1_455  A
C574        H586   1.083       .  S
C575        C576   1.383       .  A
C575        H587   1.082       .  S
C577        C578   1.380       .  A
C577        H589   1.082       .  S
C578        H590   1.080       .  S
C579        C580   1.377       .  A
C579        H591   1.083       .  S
C580        H592   1.078       .  S
C581       C1473   1.502       .  S
C582       C1412   1.529       .  S
C584        C786   1.486       .  S
O595        C598   1.265       .  A
O595       Cd600   2.483       .  S
C596        C643   1.483       .  S
C596        O605   1.266       .  A
C596        O601   1.268       .  A
O597        C603   1.273       .  A
O597       Cd600   2.565       .  S
C598       C1352   1.478       .  S
C598        O606   1.266       .  A
C599        C838   1.486       .  S
C599        O604   1.272       .  A
C599        O602   1.264       .  A
Cd600       O607   2.406       .  S
Cd600       O606   2.495       .  S
Cd600       O605   2.472       .  S
Cd600       O601   2.416       .  S
Cd600       O604   2.514       .  S
Cd600       O602   2.410       .  S
C603        O607   1.258       .  A
O608        C611   1.270       .  A
O608       Cd613   2.520       .  S
C609       C1445   1.500       .  S
C609        O618   1.258       .  A
C609        O614   1.268       .  A
O610        C616   1.267       .  A
O610       Cd613   2.522   1_554  S
C611        C737   1.502       .  S
C611        O619   1.266       .  A
C612        C841   1.490       .  S
C612        O617   1.268       .  A
C612        O615   1.267       .  A
Cd613       O620   2.488       .  S
Cd613       O619   2.440       .  S
Cd613       O618   2.490       .  S
Cd613       O614   2.536       .  S
Cd613       O617   2.475       .  S
Cd613       O615   2.444       .  S
C616        O620   1.264   1_554  A
N621        H653   1.034       .  S
N621        C626   1.361       .  A
N621        C625   1.350       .  A
N622        C629   1.346       .  A
N622        C630   1.349       .  A
N623        H654   1.032       .  S
N623        C628   1.349       .  A
N623        C627   1.359       .  A
N624        C631   1.349       .  A
N624        C632   1.344       .  A
C625        C633   1.382       .  A
C625        C641   1.413       .  A
C626        C642   1.440       .  A
C626        C634   1.394       .  A
C627        C635   1.383       .  A
C627        C644   1.421       .  A
C628        C643   1.424       .  A
C628        C636   1.390       .  A
C629        C641   1.409       .  A
C629        C637   1.384       .  A
C630        C644   1.430       .  A
C630        C638   1.392       .  A
C631        C639   1.384       .  A
C631        C642   1.420       .  A
C632        C640   1.390       .  A
C632        C643   1.420       .  A
C633        C634   1.375       .  A
C633        H645   1.083       .  S
C634        H646   1.078       .  S
C635        C636   1.381       .  A
C635        H647   1.082       .  S
C636        H648   1.082       .  S
C637        C638   1.376       .  A
C637        H649   1.083       .  S
C638        H650   1.078       .  S
C639        C640   1.384       .  A
C639        H651   1.082       .  S
C640        H652   1.081       .  S
C641        C675   1.529       .  S
C642        C797   1.503       .  S
C644        C706   1.500       .  S
N655        H687   1.045       .  S
N655        C660   1.348       .  A
N655        C659   1.348       .  A
N656        C663   1.346       .  A
N656        C664   1.348       .  A
N657        H688   1.040       .  S
N657        C662   1.353       .  A
N657        C661   1.356       .  A
N658        C665   1.352       .  A
N658        C666   1.345       .  A
C659        C667   1.385       .  A
C659        C675   1.394       .  A
C660        C676   1.390   1_565  A
C660        C668   1.380       .  A
C661        C669   1.378       .  A
C661        C678   1.412       .  A
C662        C677   1.437   1_565  A
C662        C670   1.397       .  A
C663        C675   1.395       .  A
C663        C671   1.387       .  A
C664        C678   1.387       .  A
C664        C672   1.377       .  A
C665        C673   1.379       .  A
C665        C676   1.402       .  A
C666        C674   1.396       .  A
C666        C677   1.429       .  A
C667        C668   1.356       .  A
C667        H679   1.077       .  S
C668        H680   1.080   1_565  S
C669        C670   1.392       .  A
C669        H681   1.082       .  S
C670        H682   1.080       .  S
C671        C672   1.359       .  A
C671        H683   1.080       .  S
C672        H684   1.080       .  S
C673        C674   1.383       .  A
C673        H685   1.082       .  S
C674        H686   1.082       .  S
C676        C703   1.473       .  S
C678        C804   1.484       .  S
O689        C692   1.270       .  A
O689       Cd694   2.504       .  S
C690        C769   1.516       .  S
C690        O699   1.258       .  A
C690        O695   1.271       .  A
O691        C697   1.265       .  A
O691       Cd694   2.493       .  S
C692        O700   1.265       .  A
C693        C824   1.481       .  S
C693        O698   1.266       .  A
C693        O696   1.265       .  A
Cd694       O701   2.498       .  S
Cd694       O700   2.405       .  S
Cd694       O699   2.453       .  S
Cd694       O695   2.599       .  S
Cd694       O698   2.461       .  S
Cd694       O696   2.426       .  S
C697        C738   1.476       .  S
C697        O701   1.266       .  A
O702        C705   1.269       .  A
O702       Cd707   2.403       .  S
C703        O712   1.265       .  A
C703        O708   1.263       .  A
O704        C710   1.270       .  A
O704       Cd707   2.494       .  S
C705        O713   1.267       .  A
C706        O711   1.269   1_565  A
C706        O709   1.258       .  A
Cd707       O714   2.407       .  S
Cd707       O713   2.434       .  S
Cd707       O712   2.502       .  S
Cd707       O708   2.475       .  S
Cd707       O711   2.536       .  S
Cd707       O709   2.469   1_545  S
C710        C827   1.484       .  S
C710        O714   1.262       .  A
N715        H747   1.045       .  S
N715        C720   1.347       .  A
N715        C719   1.344       .  A
N716        C723   1.353       .  A
N716        C724   1.351       .  A
N717        H748   1.036       .  S
N717        C722   1.356       .  A
N717        C721   1.353       .  A
N718        C725   1.350       .  A
N718        C726   1.344       .  A
C719        C727   1.386       .  A
C719        C735   1.394       .  A
C720        C736   1.390       .  A
C720        C728   1.381       .  A
C721        C729   1.378       .  A
C721        C738   1.412       .  A
C722        C737   1.445       .  A
C722        C730   1.400       .  A
C723        C735   1.399       .  A
C723        C731   1.388       .  A
C724        C738   1.393       .  A
C724        C732   1.376       .  A
C725        C733   1.377       .  A
C725        C736   1.406       .  A
C726        C734   1.398       .  A
C726        C737   1.438       .  A
C727        C728   1.359       .  A
C727        H739   1.080       .  S
C728        H740   1.080       .  S
C729        C730   1.392       .  A
C729        H741   1.082       .  S
C730        H742   1.079       .  S
C731        C732   1.348       .  A
C731        H743   1.076       .  S
C732        H744   1.081       .  S
C733        C734   1.388       .  A
C733        H745   1.082       .  S
C734        H746   1.081       .  S
C735        C770   1.530       .  S
C736        C784   1.475       .  S
N749        H781   1.030       .  S
N749        C754   1.343       .  A
N749        C753   1.354       .  A
N750        C757   1.353       .  A
N750        C758   1.343       .  A
N751        H782   1.034       .  S
N751        C756   1.363       .  A
N751        C755   1.351       .  A
N752        C759   1.350       .  A
N752        C760   1.349       .  A
C753        C761   1.394       .  A
C753        C769   1.435       .  A
C754        C770   1.406       .  A
C754        C762   1.381       .  A
C755        C763   1.385       .  A
C755        C772   1.421       .  A
C756        C771   1.432       .  A
C756        C764   1.389       .  A
C757        C769   1.425       .  A
C757        C765   1.384       .  A
C758        C772   1.422       .  A
C758        C766   1.390       .  A
C759        C767   1.382       .  A
C759        C770   1.413       .  A
C760        C768   1.395       .  A
C760        C771   1.433       .  A
C761        C762   1.380       .  A
C761        H773   1.080       .  S
C762        H774   1.082       .  S
C763        C764   1.378       .  A
C763        H775   1.083       .  S
C764        H776   1.082       .  S
C765        C766   1.386       .  A
C765        H777   1.082       .  S
C766        H778   1.081       .  S
C767        C768   1.377       .  A
C767        H779   1.083       .  S
C768        H780   1.078       .  S
C771        C787   1.505       .  S
O783        C786   1.269       .  A
O783       Cd788   2.431       .  S
C784        O793   1.263       .  A
C784        O789   1.264       .  A
O785        C791   1.270       .  A
O785       Cd788   2.550       .  S
C786        O794   1.267       .  A
C787        O792   1.268       .  A
C787        O790   1.260       .  A
Cd788       O795   2.421       .  S
Cd788       O794   2.446       .  S
Cd788       O793   2.500       .  S
Cd788       O789   2.487       .  S
Cd788       O792   2.517       .  S
Cd788       O790   2.499       .  S
C791        C813   1.494       .  S
C791        O795   1.263       .  A
O796        C799   1.269       .  A
O796       Cd801   2.511       .  S
C797        O806   1.259       .  A
C797        O802   1.267       .  A
O798        C804   1.267       .  A
O798       Cd801   2.514       .  S
C799        O807   1.267       .  A
C800        C810   1.495       .  S
C800        O805   1.270       .  A
C800        O803   1.266       .  A
Cd801       O808   2.514       .  S
Cd801       O807   2.457       .  S
Cd801       O806   2.506       .  S
Cd801       O802   2.547       .  S
Cd801       O805   2.513       .  S
Cd801       O803   2.442       .  S
C804        O808   1.263       .  A
C809        C810   1.410       .  A
C809        C814   1.416       .  A
C809        H816   1.083       .  S
C810        C811   1.414       .  A
C811        C812   1.403       .  A
C811        N818   1.438       .  S
C812        C813   1.404       .  A
C812        H817   1.084       .  S
C813        C814   1.416       .  A
C814        N815   1.437       .  S
N815        H819   1.046       .  S
N815        H820   1.045       .  S
N818        H821   1.046       .  S
N818        H822   1.046       .  S
C823        C824   1.402       .  A
C823        C828   1.401       .  A
C823        H830   1.084       .  S
C824        C825   1.415       .  A
C825        C826   1.407       .  A
C825        N832   1.438       .  S
C826        C827   1.404       .  A
C826        H831   1.083       .  S
C827        C828   1.416       .  A
C828        N829   1.439       .  S
N829        H833   1.046       .  S
N829        H834   1.045       .  S
N832        H835   1.046       .  S
N832        H836   1.046       .  S
C837        C838   1.404       .  A
C837        C842   1.412       .  A
C837        H844   1.083       .  S
C838        C839   1.411       .  A
C839        C840   1.400       .  A
C839        N846   1.433       .  S
C840        C841   1.404       .  A
C840        H845   1.084       .  S
C841        C842   1.418       .  A
C842        N843   1.437   1_556  S
N843        H847   1.046       .  S
N843        H848   1.045       .  S
N846        H849   1.046       .  S
N846        H850   1.046       .  S
C851        C852   1.407       .  A
C851        C856   1.417       .  A
C851        H858   1.083       .  S
C852        C853   1.412       .  A
C853        C854   1.398       .  A
C853        N860   1.433       .  S
C854        C855   1.402       .  A
C854        H859   1.084       .  S
C855        C856   1.417       .  A
C856        N857   1.437       .  S
N857        H861   1.046       .  S
N857        H862   1.045       .  S
N860        H863   1.046       .  S
N860        H864   1.046       .  S
N865        H897   1.034       .  S
N865        C869   1.360       .  A
N866        C873   1.353       .  A
N866        C874   1.347       .  A
N867        H898   1.032       .  S
N867        C872   1.360       .  A
N867        C871   1.349       .  A
N868       C1307   1.346       .  A
N868        C876   1.349       .  A
C869        C885   1.440       .  A
C870        C878   1.380   1_455  A
C871        C879   1.394   1_545  A
C871        C888   1.432       .  A
C872        C887   1.421   1_554  A
C872        C880   1.381   1_545  A
C873        C885   1.425       .  A
C873        C881   1.382       .  A
C874        C888   1.429       .  A
C874        C882   1.391       .  A
C875       N1300   1.345       .  A
C875        C883   1.383       .  A
C875       C1318   1.405       .  A
C876       C1316   1.391       .  A
C876        C887   1.432       .  A
C877        C878   1.375   1_554  A
C877        H889   1.077       .  S
C878        H890   1.083       .  S
C879        C880   1.381       .  A
C879        H891   1.082       .  S
C880        H892   1.082       .  S
C881        C882   1.383       .  A
C881        H893   1.082       .  S
C882        H894   1.080       .  S
C883        C884   1.376       .  A
C883        H895   1.083       .  S
C884       C1308   1.392       .  A
C884        H896   1.078       .  S
C886       C1307   1.408       .  A
C887       C1467   1.513   1_545  S
C888       C1137   1.491       .  S
N899        H931   1.045       .  S
N899        C904   1.347   1_655  A
N899       C1335   1.345   1_665  A
N900        C907   1.347       .  A
N900        C908   1.348       .  A
N901        H932   1.040       .  S
N901        C906   1.353       .  A
N901       C1337   1.354       .  A
N902        C909   1.352       .  A
N902        C910   1.344       .  A
C903       N1331   1.347   1_445  A
C903        C919   1.396   1_455  A
C904        C920   1.388       .  A
C905       N1333   1.354       .  A
C905       C1345   1.378       .  A
C905        C922   1.414   1_556  A
C906        C921   1.438       .  A
C906        C914   1.397       .  A
C907        C919   1.396       .  A
C907        C915   1.387   1_556  A
C908        C922   1.391   1_546  A
C908        C916   1.378   1_556  A
C909        C917   1.379       .  A
C909        C920   1.405   1_655  A
C910        C918   1.396       .  A
C910        C921   1.429       .  A
C911       C1344   1.357       .  A
C911        H923   1.075   1_556  S
C912       C1343   1.361       .  A
C912        H924   1.081       .  S
C913       C1337   1.380       .  A
C913        C914   1.395       .  A
C913       H1357   1.082       .  S
C914        H926   1.081       .  S
C915        C916   1.357       .  A
C915        H927   1.080       .  S
C916        H928   1.080       .  S
C917        C918   1.386       .  A
C917        H929   1.082       .  S
C918        H930   1.082       .  S
C921       C1231   1.490       .  S
C922        C954   1.478   1_565  S
H925       C1345   1.082       .  S
O933        C936   1.264       .  A
O933       Cd938   2.489       .  S
C934       C1204   1.489       .  S
C934        O943   1.265       .  A
C934        O939   1.268       .  A
O935        C941   1.269       .  A
O935       Cd938   2.558       .  S
C936        O944   1.265       .  A
C937       C1284   1.482       .  S
C937        O942   1.270       .  A
C937        O940   1.265       .  A
Cd938       O945   2.448       .  S
Cd938       O944   2.489       .  S
Cd938       O943   2.456       .  S
Cd938       O939   2.452       .  S
Cd938       O942   2.501       .  S
Cd938       O940   2.416       .  S
C941       C1015   1.511       .  S
C941        O945   1.259       .  A
O946        C949   1.270       .  A
O946       Cd951   2.513       .  S
C947        O956   1.257       .  A
C947        O952   1.269       .  A
O948        C954   1.267       .  A
O948       Cd951   2.506       .  S
C949       C1109   1.491       .  S
C949        O957   1.265       .  A
C950       C1287   1.488       .  S
C950        O955   1.269       .  A
C950        O953   1.267       .  A
Cd951       O958   2.483       .  S
Cd951       O957   2.411       .  S
Cd951       O956   2.474       .  S
Cd951       O952   2.566       .  S
Cd951       O955   2.496       .  S
Cd951       O953   2.426       .  S
C954        O958   1.264       .  A
N959        H991   1.045       .  S
N959        C964   1.344       .  A
N959        C963   1.348       .  A
N960        C967   1.353       .  A
N960        C968   1.344       .  A
N961        H992   1.041       .  S
N961        C966   1.356       .  A
N961        C965   1.351       .  A
N962       C1401   1.343       .  A
N962       C1402   1.346       .  A
C963        C979   1.391       .  A
C964        C980   1.393       .  A
C965        C973   1.396       .  A
C965        C982   1.435       .  A
C966        C981   1.414       .  A
C966        C974   1.380       .  A
C967        C979   1.403       .  A
C967        C975   1.378       .  A
C968        C982   1.431       .  A
C968        C976   1.397       .  A
C969       N1394   1.346       .  A
C969        C977   1.386       .  A
C969       C1412   1.394       .  A
C970       N1394   1.349       .  A
C970        C978   1.376       .  A
C970       C1413   1.388       .  A
C971        C972   1.356       .  A
C971        H983   1.081       .  S
C972        H984   1.074       .  S
C973        C974   1.396       .  A
C973        H985   1.081       .  S
C974        H986   1.082       .  S
C975        C976   1.384       .  A
C975        H987   1.082       .  S
C976        H988   1.082       .  S
C977        C978   1.354       .  A
C977        H989   1.080       .  S
C978        H990   1.079       .  S
C980       C1401   1.392       .  A
C981       C1402   1.387       .  A
C981       C1480   1.483       .  S
C982       C1124   1.487       .  S
N993       H1025   1.032       .  S
N993       C1430   1.347       .  A
N993        C997   1.361       .  A
N994       C1001   1.352       .  A
N994       C1002   1.347       .  A
N995       H1026   1.032       .  S
N995       C1432   1.357       .  A
N995        C999   1.348       .  A
N996       C1003   1.346       .  A
N996       C1004   1.348       .  A
C997       C1013   1.443   1_655  A
C998       N1425   1.349       .  A
C998       C1014   1.412       .  A
C999       C1007   1.393       .  A
C999       C1016   1.426       .  A
C1000      N1427   1.361   1_554  A
C1000      C1015   1.429       .  A
C1000      C1440   1.384   1_554  A
C1001      C1013   1.427   1_655  A
C1001      C1009   1.385       .  A
C1002      C1016   1.423       .  A
C1002      C1010   1.387       .  A
C1003      C1011   1.382       .  A
C1003      C1014   1.406       .  A
C1004      C1012   1.393       .  A
C1004      C1015   1.435       .  A
C1005      C1438   1.378       .  A
C1005      H1017   1.078       .  S
C1006      C1437   1.374       .  A
C1006      H1018   1.083       .  S
C1007      C1008   1.382       .  A
C1007      H1019   1.082       .  S
C1008      C1432   1.383       .  A
C1008      H1452   1.083       .  S
C1009      C1010   1.383       .  A
C1009      H1021   1.082   1_655  S
C1010      H1022   1.081       .  S
C1011      C1012   1.376       .  A
C1011      H1023   1.083       .  S
C1012      H1024   1.078       .  S
C1016      C1218   1.488       .  S
H1020      C1440   1.082       .  S
O1027      C1030   1.265       .  A
O1027     Cd1032   2.484       .  S
C1028      C1075   1.484       .  S
C1028      O1037   1.267       .  A
C1028      O1033   1.270       .  A
O1029      C1035   1.269       .  A
O1029     Cd1032   2.521       .  S
C1030      O1038   1.263       .  A
C1031      C1270   1.479       .  S
C1031      O1036   1.270       .  A
C1031      O1034   1.264       .  A
Cd1032     O1039   2.457       .  S
Cd1032     O1038   2.493       .  S
Cd1032     O1037   2.459       .  S
Cd1032     O1033   2.420       .  S
Cd1032     O1036   2.490       .  S
Cd1032     O1034   2.415       .  S
C1035      C1319   1.497       .  S
C1035      O1039   1.259       .  A
O1040      C1043   1.270       .  A
O1040     Cd1045   2.522       .  S
C1041      O1050   1.258       .  A
C1041      O1046   1.270       .  A
O1042      C1048   1.266       .  A
O1042     Cd1045   2.510       .  S
C1043      C1169   1.499       .  S
C1043      O1051   1.266       .  A
C1044      C1273   1.486       .  S
C1044      O1049   1.267       .  A
C1044      O1047   1.267       .  A
Cd1045     O1052   2.498       .  S
Cd1045     O1051   2.449       .  S
Cd1045     O1050   2.496       .  S
Cd1045     O1046   2.556       .  S
Cd1045     O1049   2.462       .  S
Cd1045     O1047   2.461       .  S
C1048      C1413   1.480       .  S
C1048      O1052   1.265       .  A
N1053      H1085   1.035       .  S
N1053      C1058   1.359       .  A
N1053      C1057   1.349       .  A
N1054      C1061   1.346       .  A
N1054      C1062   1.349       .  A
N1055      H1086   1.032       .  S
N1055      C1060   1.347       .  A
N1055      C1059   1.360       .  A
N1056      C1063   1.351       .  A
N1056      C1064   1.346       .  A
C1057      C1065   1.382       .  A
C1057      C1073   1.410       .  A
C1058      C1074   1.438       .  A
C1058      C1066   1.395       .  A
C1059      C1067   1.383       .  A
C1059      C1076   1.425       .  A
C1060      C1075   1.425       .  A
C1060      C1068   1.391       .  A
C1061      C1073   1.407       .  A
C1061      C1069   1.382       .  A
C1062      C1076   1.433       .  A
C1062      C1070   1.392       .  A
C1063      C1071   1.385       .  A
C1063      C1074   1.423       .  A
C1064      C1072   1.389       .  A
C1064      C1075   1.422       .  A
C1065      C1066   1.374       .  A
C1065      H1077   1.083       .  S
C1066      H1078   1.078       .  S
C1067      C1068   1.382       .  A
C1067      H1079   1.082       .  S
C1068      H1080   1.082       .  S
C1069      C1070   1.376       .  A
C1069      H1081   1.083       .  S
C1070      H1082   1.077       .  S
C1071      C1072   1.384       .  A
C1071      H1083   1.082       .  S
C1072      H1084   1.081       .  S
C1073      C1107   1.528       .  S
C1074      C1229   1.501       .  S
C1076      C1138   1.509       .  S
N1087      H1119   1.045       .  S
N1087      C1092   1.349       .  A
N1087      C1091   1.347       .  A
N1088      C1095   1.345       .  A
N1088      C1096   1.347       .  A
N1089      H1120   1.040       .  S
N1089      C1094   1.351       .  A
N1089      C1093   1.353       .  A
N1090      C1097   1.352       .  A
N1090      C1098   1.345       .  A
C1091      C1099   1.384       .  A
C1091      C1107   1.394       .  A
C1092      C1108   1.391   1_565  A
C1092      C1100   1.380       .  A
C1093      C1101   1.379       .  A
C1093      C1110   1.410       .  A
C1094      C1109   1.435   1_565  A
C1094      C1102   1.397       .  A
C1095      C1107   1.395       .  A
C1095      C1103   1.388       .  A
C1096      C1110   1.388       .  A
C1096      C1104   1.378       .  A
C1097      C1105   1.379       .  A
C1097      C1108   1.403       .  A
C1098      C1106   1.396       .  A
C1098      C1109   1.430       .  A
C1099      C1100   1.356       .  A
C1099      H1111   1.076       .  S
C1100      H1112   1.081   1_565  S
C1101      C1102   1.393       .  A
C1101      H1113   1.082       .  S
C1102      H1114   1.080       .  S
C1103      C1104   1.359       .  A
C1103      H1115   1.080       .  S
C1104      H1116   1.080       .  S
C1105      C1106   1.384       .  A
C1105      H1117   1.082       .  S
C1106      H1118   1.082       .  S
C1108      C1135   1.473       .  S
C1110      C1236   1.478       .  S
O1121      C1124   1.270       .  A
O1121     Cd1126   2.511       .  S
C1122      C1201   1.513       .  S
C1122      O1131   1.258       .  A
C1122      O1127   1.272       .  A
O1123      C1129   1.266       .  A
O1123     Cd1126   2.490       .  S
C1124      O1132   1.265       .  A
C1125      C1256   1.477       .  S
C1125      O1130   1.267       .  A
C1125      O1128   1.265       .  A
Cd1126     O1133   2.495       .  S
Cd1126     O1132   2.413       .  S
Cd1126     O1131   2.459       .  S
Cd1126     O1127   2.592       .  S
Cd1126     O1130   2.468       .  S
Cd1126     O1128   2.422       .  S
C1129      C1170   1.474       .  S
C1129      O1133   1.265       .  A
O1134      C1137   1.267       .  A
O1134     Cd1139   2.416       .  S
C1135      O1144   1.265       .  A
C1135      O1140   1.263       .  A
O1136      C1142   1.270       .  A
O1136     Cd1139   2.508       .  S
C1137      O1145   1.267       .  A
C1138      O1143   1.270   1_565  A
C1138      O1141   1.259       .  A
Cd1139     O1146   2.410       .  S
Cd1139     O1145   2.464       .  S
Cd1139     O1144   2.497       .  S
Cd1139     O1140   2.475       .  S
Cd1139     O1143   2.560       .  S
Cd1139     O1141   2.461   1_545  S
C1142      C1259   1.483       .  S
C1142      O1146   1.262       .  A
N1147      H1179   1.045       .  S
N1147      C1152   1.346       .  A
N1147      C1151   1.344       .  A
N1148      C1155   1.348       .  A
N1148      C1156   1.348       .  A
N1149      H1180   1.035       .  S
N1149      C1154   1.354       .  A
N1149      C1153   1.352       .  A
N1150      C1157   1.351       .  A
N1150      C1158   1.345       .  A
C1151      C1159   1.387       .  A
C1151      C1167   1.393       .  A
C1152      C1168   1.392       .  A
C1152      C1160   1.383       .  A
C1153      C1161   1.379       .  A
C1153      C1170   1.413       .  A
C1154      C1169   1.443       .  A
C1154      C1162   1.399       .  A
C1155      C1167   1.397       .  A
C1155      C1163   1.390       .  A
C1156      C1170   1.390       .  A
C1156      C1164   1.378       .  A
C1157      C1165   1.378       .  A
C1157      C1168   1.409       .  A
C1158      C1166   1.397       .  A
C1158      C1169   1.438       .  A
C1159      C1160   1.362       .  A
C1159      H1171   1.081       .  S
C1160      H1172   1.080       .  S
C1161      C1162   1.394       .  A
C1161      H1173   1.082       .  S
C1162      H1174   1.080       .  S
C1163      C1164   1.354       .  A
C1163      H1175   1.078       .  S
C1164      H1176   1.081       .  S
C1165      C1166   1.389       .  A
C1165      H1177   1.082       .  S
C1166      H1178   1.081       .  S
C1167      C1202   1.524       .  S
C1168      C1216   1.475       .  S
N1181      H1213   1.031       .  S
N1181      C1186   1.342       .  A
N1181      C1185   1.353       .  A
N1182      C1189   1.355       .  A
N1182      C1190   1.344       .  A
N1183      H1214   1.035       .  S
N1183      C1188   1.367       .  A
N1183      C1187   1.351       .  A
N1184      C1191   1.346       .  A
N1184      C1192   1.346       .  A
C1185      C1193   1.394       .  A
C1185      C1201   1.434       .  A
C1186      C1202   1.403       .  A
C1186      C1194   1.381       .  A
C1187      C1195   1.386       .  A
C1187      C1204   1.425       .  A
C1188      C1203   1.436       .  A
C1188      C1196   1.388       .  A
C1189      C1201   1.425       .  A
C1189      C1197   1.382       .  A
C1190      C1204   1.425       .  A
C1190      C1198   1.392       .  A
C1191      C1199   1.380       .  A
C1191      C1202   1.408       .  A
C1192      C1200   1.395       .  A
C1192      C1203   1.433       .  A
C1193      C1194   1.380       .  A
C1193      H1205   1.079       .  S
C1194      H1206   1.082       .  S
C1195      C1196   1.381       .  A
C1195      H1207   1.082       .  S
C1196      H1208   1.082       .  S
C1197      C1198   1.385       .  A
C1197      H1209   1.082       .  S
C1198      H1210   1.080       .  S
C1199      C1200   1.378       .  A
C1199      H1211   1.082       .  S
C1200      H1212   1.078       .  S
C1203      C1219   1.514       .  S
O1215      C1218   1.269       .  A
O1215     Cd1220   2.416       .  S
C1216      O1225   1.263       .  A
C1216      O1221   1.264       .  A
O1217      C1223   1.270       .  A
O1217     Cd1220   2.520       .  S
C1218      O1226   1.268       .  A
C1219      O1224   1.269       .  A
C1219      O1222   1.258       .  A
Cd1220     O1227   2.439       .  S
Cd1220     O1226   2.466       .  S
Cd1220     O1225   2.502       .  S
Cd1220     O1221   2.494       .  S
Cd1220     O1224   2.562       .  S
Cd1220     O1222   2.480       .  S
C1223      C1245   1.489       .  S
C1223      O1227   1.264       .  A
O1228      C1231   1.268       .  A
O1228     Cd1233   2.513       .  S
C1229      O1238   1.260       .  A
C1229      O1234   1.265       .  A
O1230      C1236   1.267       .  A
O1230     Cd1233   2.511       .  S
C1231      O1239   1.265       .  A
C1232      C1242   1.487       .  S
C1232      O1237   1.268       .  A
C1232      O1235   1.266       .  A
Cd1233     O1240   2.490       .  S
Cd1233     O1239   2.412       .  S
Cd1233     O1238   2.504       .  S
Cd1233     O1234   2.536       .  S
Cd1233     O1237   2.499       .  S
Cd1233     O1235   2.448       .  S
C1236      O1240   1.264       .  A
C1241      C1242   1.406       .  A
C1241      C1246   1.412       .  A
C1241      H1248   1.084       .  S
C1242      C1243   1.411       .  A
C1243      C1244   1.405       .  A
C1243      N1250   1.438       .  S
C1244      C1245   1.406       .  A
C1244      H1249   1.084       .  S
C1245      C1246   1.415       .  A
C1246      N1247   1.437       .  S
N1247      H1251   1.046       .  S
N1247      H1252   1.045       .  S
N1250      H1253   1.046       .  S
N1250      H1254   1.046       .  S
C1255      C1256   1.401       .  A
C1255      C1260   1.401       .  A
C1255      H1262   1.084       .  S
C1256      C1257   1.414       .  A
C1257      C1258   1.408       .  A
C1257      N1264   1.438       .  S
C1258      C1259   1.404       .  A
C1258      H1263   1.083       .  S
C1259      C1260   1.415       .  A
C1260      N1261   1.438       .  S
N1261      H1265   1.046       .  S
N1261      H1266   1.046       .  S
N1264      H1267   1.046       .  S
N1264      H1268   1.046       .  S
C1269      C1270   1.402       .  A
C1269      C1274   1.409       .  A
C1269      H1276   1.084       .  S
C1270      C1271   1.409       .  A
C1271      C1272   1.402       .  A
C1271      N1278   1.433       .  S
C1272      C1273   1.404       .  A
C1272      H1277   1.084       .  S
C1273      C1274   1.418       .  A
C1274      N1275   1.437       .  S
N1275      H1279   1.046       .  S
N1275      H1280   1.045       .  S
N1278      H1281   1.045       .  S
N1278      H1282   1.046       .  S
C1283      C1284   1.405       .  A
C1283      C1288   1.413       .  A
C1283      H1290   1.084       .  S
C1284      C1285   1.409       .  A
C1285      C1286   1.398       .  A
C1285      N1292   1.433       .  S
C1286      C1287   1.403       .  A
C1286      H1291   1.084       .  S
C1287      C1288   1.418       .  A
C1288      N1289   1.437       .  S
N1289      H1293   1.046       .  S
N1289      H1294   1.045       .  S
N1292      H1295   1.046       .  S
N1292      H1296   1.046       .  S
N1297      H1329   1.033       .  S
N1297      C1301   1.358       .  A
N1298      C1305   1.349       .  A
N1298      C1306   1.344       .  A
N1299      H1330   1.030       .  S
N1299      C1304   1.358   1_545  A
N1299      C1303   1.346       .  A
N1300      C1308   1.347       .  A
C1301      C1317   1.439       .  A
C1302      C1310   1.380   1_455  A
C1303      C1311   1.391   1_545  A
C1303      C1320   1.424       .  A
C1304      C1319   1.422       .  A
C1304      C1312   1.384       .  A
C1305      C1317   1.421       .  A
C1305      C1313   1.385       .  A
C1306      C1320   1.419       .  A
C1306      C1314   1.388       .  A
C1307      C1315   1.384       .  A
C1308      C1319   1.429   1_545  A
C1309      C1310   1.375       .  A
C1309      H1321   1.077       .  S
C1310      H1322   1.083       .  S
C1311      C1312   1.382       .  A
C1311      H1323   1.082       .  S
C1312      H1324   1.082       .  S
C1313      C1314   1.383       .  A
C1313      H1325   1.082       .  S
C1314      H1326   1.081       .  S
C1315      C1316   1.377       .  A
C1315      H1327   1.083       .  S
C1316      H1328   1.080       .  S
C1320      C1569   1.482       .  S
N1331      H1363   1.045       .  S
N1331      C1336   1.350   1_655  A
N1332      C1339   1.346       .  A
N1332      C1340   1.347       .  A
N1333      H1364   1.036       .  S
N1333      C1338   1.355       .  A
N1334      C1341   1.351       .  A
N1334      C1342   1.346       .  A
C1335      C1351   1.392   1_455  A
C1336      C1352   1.394       .  A
C1337      C1354   1.414       .  A
C1338      C1353   1.446       .  A
C1338      C1346   1.400       .  A
C1339      C1351   1.397       .  A
C1339      C1347   1.389       .  A
C1340      C1354   1.388   1_545  A
C1340      C1348   1.378       .  A
C1341      C1349   1.378       .  A
C1341      C1352   1.407   1_655  A
C1342      C1350   1.397       .  A
C1342      C1353   1.437       .  A
C1343      H1355   1.078       .  S
C1344      H1356   1.081       .  S
C1345      C1346   1.393       .  A
C1346      H1358   1.078       .  S
C1347      C1348   1.361       .  A
C1347      H1359   1.079       .  S
C1348      H1360   1.081   1_545  S
C1349      C1350   1.387       .  A
C1349      H1361   1.082       .  S
C1350      H1362   1.081       .  S
C1353      C1663   1.505       .  S
C1354      C1386   1.479   1_565  S
O1365      C1368   1.265       .  A
O1365     Cd1370   2.489       .  S
C1366      C1636   1.490       .  S
C1366      O1375   1.267       .  A
C1366      O1371   1.268       .  A
O1367      C1373   1.271       .  A
O1367     Cd1370   2.534       .  S
C1368      O1376   1.265       .  A
C1369      C1716   1.481       .  S
C1369      O1374   1.271       .  A
C1369      O1372   1.263       .  A
Cd1370     O1377   2.467       .  S
Cd1370     O1376   2.510       .  S
Cd1370     O1375   2.478       .  S
Cd1370     O1371   2.417       .  S
Cd1370     O1374   2.518       .  S
Cd1370     O1372   2.396       .  S
C1373      C1447   1.502       .  S
C1373      O1377   1.259       .  A
O1378      C1381   1.270       .  A
O1378     Cd1383   2.528       .  S
C1379      O1388   1.257       .  A
C1379      O1384   1.269       .  A
O1380      C1386   1.268       .  A
O1380     Cd1383   2.513       .  S
C1381      C1541   1.491       .  S
C1381      O1389   1.265       .  A
C1382      C1719   1.490       .  S
C1382      O1387   1.269       .  A
C1382      O1385   1.267       .  A
Cd1383     O1390   2.484       .  S
Cd1383     O1389   2.415       .  S
Cd1383     O1388   2.477       .  S
Cd1383     O1384   2.563       .  S
Cd1383     O1387   2.506       .  S
Cd1383     O1385   2.437       .  S
C1386      O1390   1.264       .  A
N1391      H1423   1.045       .  S
N1391      C1396   1.346       .  A
N1391      C1395   1.347       .  A
N1392      C1399   1.353       .  A
N1392      C1400   1.346       .  A
N1393      H1424   1.039       .  S
N1393      C1398   1.354       .  A
N1393      C1397   1.352       .  A
C1395      C1411   1.388       .  A
C1396      C1412   1.395       .  A
C1397      C1405   1.398       .  A
C1397      C1414   1.437       .  A
C1398      C1413   1.410       .  A
C1398      C1406   1.378       .  A
C1399      C1411   1.405       .  A
C1399      C1407   1.378       .  A
C1400      C1414   1.432       .  A
C1400      C1408   1.396       .  A
C1401      C1409   1.387       .  A
C1402      C1410   1.378   1_554  A
C1403      C1404   1.356       .  A
C1403      H1415   1.081       .  S
C1404      H1416   1.076       .  S
C1405      C1406   1.393       .  A
C1405      H1417   1.080       .  S
C1406      H1418   1.082       .  S
C1407      C1408   1.385       .  A
C1407      H1419   1.082       .  S
C1408      H1420   1.082       .  S
C1409      C1410   1.361   1_554  A
C1409      H1421   1.079   1_554  S
C1410      H1422   1.080       .  S
C1414      C1556   1.492       .  S
N1425      H1457   1.033   1_554  S
N1425      C1429   1.360   1_554  A
N1426      C1433   1.349       .  A
N1426      C1434   1.344       .  A
N1427      H1458   1.030       .  S
N1427      C1431   1.350       .  A
N1428      C1435   1.349       .  A
N1428      C1436   1.351       .  A
C1429      C1445   1.439   1_655  A
C1430      C1446   1.411       .  A
C1431      C1439   1.390       .  A
C1431      C1448   1.429       .  A
C1432      C1447   1.420       .  A
C1433      C1445   1.417   1_655  A
C1433      C1441   1.382       .  A
C1434      C1448   1.422       .  A
C1434      C1442   1.391       .  A
C1435      C1443   1.384       .  A
C1435      C1446   1.412       .  A
C1436      C1444   1.391       .  A
C1436      C1447   1.431       .  A
C1437      H1449   1.078       .  S
C1438      H1450   1.083       .  S
C1439      C1440   1.383       .  A
C1439      H1451   1.082       .  S
C1441      C1442   1.381       .  A
C1441      H1453   1.082   1_655  S
C1442      H1454   1.081       .  S
C1443      C1444   1.377       .  A
C1443      H1455   1.083       .  S
C1444      H1456   1.078       .  S
C1448      C1650   1.488       .  S
O1459      C1462   1.264       .  A
O1459     Cd1464   2.474       .  S
C1460      C1507   1.481       .  S
C1460      O1469   1.266       .  A
C1460      O1465   1.267       .  A
O1461      C1467   1.274       .  A
O1461     Cd1464   2.576       .  S
C1462      O1470   1.267       .  A
C1463      C1702   1.489       .  S
C1463      O1468   1.273       .  A
C1463      O1466   1.264       .  A
Cd1464     O1471   2.420       .  S
Cd1464     O1470   2.489       .  S
Cd1464     O1469   2.471       .  S
Cd1464     O1465   2.399       .  S
Cd1464     O1468   2.527       .  S
Cd1464     O1466   2.410       .  S
C1467      O1471   1.259       .  A
O1472      C1475   1.270       .  A
O1472     Cd1477   2.523       .  S
C1473      O1482   1.259       .  A
C1473      O1478   1.267       .  A
O1474      C1480   1.267       .  A
O1474     Cd1477   2.524   1_554  S
C1475      C1601   1.499       .  S
C1475      O1483   1.265       .  A
C1476      C1705   1.490       .  S
C1476      O1481   1.268       .  A
C1476      O1479   1.267       .  A
Cd1477     O1484   2.499       .  S
Cd1477     O1483   2.431       .  S
Cd1477     O1482   2.503       .  S
Cd1477     O1478   2.544       .  S
Cd1477     O1481   2.487       .  S
Cd1477     O1479   2.434       .  S
C1480      O1484   1.264   1_554  A
N1485      H1517   1.035       .  S
N1485      C1490   1.361       .  A
N1485      C1489   1.350       .  A
N1486      C1493   1.346       .  A
N1486      C1494   1.348       .  A
N1487      H1518   1.034       .  S
N1487      C1492   1.348       .  A
N1487      C1491   1.358       .  A
N1488      C1495   1.349       .  A
N1488      C1496   1.344       .  A
C1489      C1497   1.380       .  A
C1489      C1505   1.411       .  A
C1490      C1506   1.443       .  A
C1490      C1498   1.395       .  A
C1491      C1499   1.381       .  A
C1491      C1508   1.417       .  A
C1492      C1507   1.425       .  A
C1492      C1500   1.392       .  A
C1493      C1505   1.406       .  A
C1493      C1501   1.383       .  A
C1494      C1508   1.426       .  A
C1494      C1502   1.391       .  A
C1495      C1503   1.384       .  A
C1495      C1506   1.421       .  A
C1496      C1504   1.389       .  A
C1496      C1507   1.419       .  A
C1497      C1498   1.374       .  A
C1497      H1509   1.083       .  S
C1498      H1510   1.077       .  S
C1499      C1500   1.380       .  A
C1499      H1511   1.082       .  S
C1500      H1512   1.082       .  S
C1501      C1502   1.375       .  A
C1501      H1513   1.083       .  S
C1502      H1514   1.078       .  S
C1503      C1504   1.383       .  A
C1503      H1515   1.082       .  S
C1504      H1516   1.081       .  S
C1505      C1539   1.529       .  S
C1506      C1661   1.506       .  S
C1508      C1570   1.495       .  S
N1519      H1551   1.045       .  S
N1519      C1524   1.348       .  A
N1519      C1523   1.348       .  A
N1520      C1527   1.345       .  A
N1520      C1528   1.348       .  A
N1521      H1552   1.040       .  S
N1521      C1526   1.354       .  A
N1521      C1525   1.357       .  A
N1522      C1529   1.353       .  A
N1522      C1530   1.345       .  A
C1523      C1531   1.384       .  A
C1523      C1539   1.393       .  A
C1524      C1540   1.389   1_565  A
C1524      C1532   1.379       .  A
C1525      C1533   1.379       .  A
C1525      C1542   1.413       .  A
C1526      C1541   1.437   1_565  A
C1526      C1534   1.396       .  A
C1527      C1539   1.396       .  A
C1527      C1535   1.386       .  A
C1528      C1542   1.389       .  A
C1528      C1536   1.379       .  A
C1529      C1537   1.379       .  A
C1529      C1540   1.403       .  A
C1530      C1538   1.396       .  A
C1530      C1541   1.430       .  A
C1531      C1532   1.355       .  A
C1531      H1543   1.076       .  S
C1532      H1544   1.080   1_565  S
C1533      C1534   1.392       .  A
C1533      H1545   1.082       .  S
C1534      H1546   1.081       .  S
C1535      C1536   1.359       .  A
C1535      H1547   1.079       .  S
C1536      H1548   1.080       .  S
C1537      C1538   1.384       .  A
C1537      H1549   1.082       .  S
C1538      H1550   1.082       .  S
C1540      C1567   1.475       .  S
C1542      C1668   1.483       .  S
O1553      C1556   1.269       .  A
O1553     Cd1558   2.518       .  S
C1554      C1633   1.513       .  S
C1554      O1563   1.259       .  A
C1554      O1559   1.269       .  A
O1555      C1561   1.265       .  A
O1555     Cd1558   2.491       .  S
C1556      O1564   1.264       .  A
C1557      C1688   1.478       .  S
C1557      O1562   1.267       .  A
C1557      O1560   1.267       .  A
Cd1558     O1565   2.491       .  S
Cd1558     O1564   2.417       .  S
Cd1558     O1563   2.500       .  S
Cd1558     O1559   2.573       .  S
Cd1558     O1562   2.472       .  S
Cd1558     O1560   2.413       .  S
C1561      C1602   1.474       .  S
C1561      O1565   1.265       .  A
O1566      C1569   1.268       .  A
O1566     Cd1571   2.402       .  S
C1567      O1576   1.264       .  A
C1567      O1572   1.262       .  A
O1568      C1574   1.268       .  A
O1568     Cd1571   2.502       .  S
C1569      O1577   1.268       .  A
C1570      O1575   1.267   1_565  A
C1570      O1573   1.258       .  A
Cd1571     O1578   2.392       .  S
Cd1571     O1577   2.445       .  S
Cd1571     O1576   2.522       .  S
Cd1571     O1572   2.475       .  S
Cd1571     O1575   2.528       .  S
Cd1571     O1573   2.466   1_545  S
C1574      C1691   1.482       .  S
C1574      O1578   1.261       .  A
N1579      H1611   1.045       .  S
N1579      C1584   1.350       .  A
N1579      C1583   1.346       .  A
N1580      C1587   1.350       .  A
N1580      C1588   1.348       .  A
N1581      H1612   1.039       .  S
N1581      C1586   1.354       .  A
N1581      C1585   1.353       .  A
N1582      C1589   1.352       .  A
N1582      C1590   1.346       .  A
C1583      C1591   1.385       .  A
C1583      C1599   1.397       .  A
C1584      C1600   1.391       .  A
C1584      C1592   1.381       .  A
C1585      C1593   1.377       .  A
C1585      C1602   1.407       .  A
C1586      C1601   1.440       .  A
C1586      C1594   1.399       .  A
C1587      C1599   1.395       .  A
C1587      C1595   1.389       .  A
C1588      C1602   1.385       .  A
C1588      C1596   1.374       .  A
C1589      C1597   1.378       .  A
C1589      C1600   1.405       .  A
C1590      C1598   1.396       .  A
C1590      C1601   1.435       .  A
C1591      C1592   1.355       .  A
C1591      H1603   1.078       .  S
C1592      H1604   1.080       .  S
C1593      C1594   1.391       .  A
C1593      H1605   1.082       .  S
C1594      H1606   1.079       .  S
C1595      C1596   1.351       .  A
C1595      H1607   1.078       .  S
C1596      H1608   1.080       .  S
C1597      C1598   1.386       .  A
C1597      H1609   1.082       .  S
C1598      H1610   1.081       .  S
C1599      C1634   1.531       .  S
C1600      C1648   1.479       .  S
N1613      H1645   1.021       .  S
N1613      C1618   1.347       .  A
N1613      C1617   1.359       .  A
N1614      C1621   1.353       .  A
N1614      C1622   1.346       .  A
N1615      H1646   1.026       .  S
N1615      C1620   1.357       .  A
N1615      C1619   1.352       .  A
N1616      C1623   1.352       .  A
N1616      C1624   1.351       .  A
C1617      C1625   1.395       .  A
C1617      C1633   1.442       .  A
C1618      C1634   1.413       .  A
C1618      C1626   1.380       .  A
C1619      C1627   1.393       .  A
C1619      C1636   1.428       .  A
C1620      C1635   1.418       .  A
C1620      C1628   1.381       .  A
C1621      C1633   1.429       .  A
C1621      C1629   1.387       .  A
C1622      C1636   1.422       .  A
C1622      C1630   1.387       .  A
C1623      C1631   1.384       .  A
C1623      C1634   1.413       .  A
C1624      C1632   1.392       .  A
C1624      C1635   1.430       .  A
C1625      C1626   1.378       .  A
C1625      H1637   1.078       .  S
C1626      H1638   1.082       .  S
C1627      C1628   1.379       .  A
C1627      H1639   1.082       .  S
C1628      H1640   1.082       .  S
C1629      C1630   1.385       .  A
C1629      H1641   1.082       .  S
C1630      H1642   1.082       .  S
C1631      C1632   1.374       .  A
C1631      H1643   1.083       .  S
C1632      H1644   1.078       .  S
C1635      C1651   1.497       .  S
O1647      C1650   1.269       .  A
O1647     Cd1652   2.429       .  S
C1648      O1657   1.263       .  A
C1648      O1653   1.264       .  A
O1649      C1655   1.269       .  A
O1649     Cd1652   2.529       .  S
C1650      O1658   1.268       .  A
C1651      O1656   1.269       .  A
C1651      O1654   1.258       .  A
Cd1652     O1659   2.430       .  S
Cd1652     O1658   2.450       .  S
Cd1652     O1657   2.502       .  S
Cd1652     O1653   2.494       .  S
Cd1652     O1656   2.530       .  S
Cd1652     O1654   2.464       .  S
C1655      C1677   1.492       .  S
C1655      O1659   1.264       .  A
O1660      C1663   1.269       .  A
O1660     Cd1665   2.518       .  S
C1661      O1670   1.258       .  A
C1661      O1666   1.268       .  A
O1662      C1668   1.266       .  A
O1662     Cd1665   2.519       .  S
C1663      O1671   1.267       .  A
C1664      C1674   1.492       .  S
C1664      O1669   1.269       .  A
C1664      O1667   1.267       .  A
Cd1665     O1672   2.505       .  S
Cd1665     O1671   2.448       .  S
Cd1665     O1670   2.492       .  S
Cd1665     O1666   2.546       .  S
Cd1665     O1669   2.502       .  S
Cd1665     O1667   2.454       .  S
C1668      O1672   1.263       .  A
C1673      C1674   1.408       .  A
C1673      C1678   1.414       .  A
C1673      H1680   1.083       .  S
C1674      C1675   1.413       .  A
C1675      C1676   1.404       .  A
C1675      N1682   1.438       .  S
C1676      C1677   1.405       .  A
C1676      H1681   1.084       .  S
C1677      C1678   1.416       .  A
C1678      N1679   1.438       .  S
N1679      H1683   1.046       .  S
N1679      H1684   1.045       .  S
N1682      H1685   1.046       .  S
N1682      H1686   1.046       .  S
C1687      C1688   1.400       .  A
C1687      C1692   1.398       .  A
C1687      H1694   1.084       .  S
C1688      C1689   1.415       .  A
C1689      C1690   1.409       .  A
C1689      N1696   1.438       .  S
C1690      C1691   1.405       .  A
C1690      H1695   1.084       .  S
C1691      C1692   1.415       .  A
C1692      N1693   1.439       .  S
N1693      H1697   1.046       .  S
N1693      H1698   1.045       .  S
N1696      H1699   1.046       .  S
N1696      H1700   1.046       .  S
C1701      C1702   1.406       .  A
C1701      C1706   1.414       .  A
C1701      H1708   1.083       .  S
C1702      C1703   1.412       .  A
C1703      C1704   1.399       .  A
C1703      N1710   1.433       .  S
C1704      C1705   1.403       .  A
C1704      H1709   1.084       .  S
C1705      C1706   1.418       .  A
C1706      N1707   1.437   1_556  S
N1707      H1711   1.046       .  S
N1707      H1712   1.045       .  S
N1710      H1713   1.046       .  S
N1710      H1714   1.046       .  S
C1715      C1716   1.404       .  A
C1715      C1720   1.414       .  A
C1715      H1722   1.084       .  S
C1716      C1717   1.409       .  A
C1717      C1718   1.398       .  A
C1717      N1724   1.434       .  S
C1718      C1719   1.403       .  A
C1718      H1723   1.084       .  S
C1719      C1720   1.418       .  A
C1720      N1721   1.437       .  S
N1721      H1725   1.046       .  S
N1721      H1726   1.045       .  S
N1724      H1727   1.046       .  S
N1724      H1728   1.045       .  S
