geometry optimzed in LAMMPS
_audit_creation_date              2020-11-30 
_audit_creation_method            'lammps2cif' 
_symmetry_space_group_name_H-M    'P1' 
_symmetry_Int_Tables_number       1 
_symmetry_cell_setting            triclinic 
loop_ 
_symmetry_equiv_pos_as_xyz 
  x,y,z 
_cell_length_a                    47.55508858 
_cell_length_b                    47.35995947308338 
_cell_length_c                    28.766732745321114 
_cell_angle_alpha                 88.39500685658612 
_cell_angle_beta                  88.58090343624876 
_cell_angle_gamma                 126.02855958052523 
loop_ 
_atom_site_label 
_atom_site_type_symbol 
_atom_site_fract_x 
_atom_site_fract_y 
_atom_site_fract_z 
_atom_site_charge 
C1          C  0.33564658  0.16503000  0.70569929     0.46500
H2          H  0.33699977  0.16651365  0.66700078    -0.02600
C3          C  0.33268088  0.16192444  0.79661148     0.46500
H4          H  0.33157394  0.16072720  0.83531530    -0.02600
C5          C  0.35162101  0.14770872  0.72708729    -0.16200
C6          C  0.35477164  0.20087372  0.72714923    -0.16000
C7          C  0.29840320  0.14411400  0.72762074    -0.16400
C8          C  0.34988044  0.14605352  0.77493679    -0.16400
C9          C  0.35342803  0.19917053  0.77483634    -0.15900
C10         C  0.29685885  0.14282835  0.77551421    -0.16200
C11         C  0.15740606  0.34062548  0.29322185     0.46500
H12         H  0.15705481  0.33833015  0.33175771    -0.02600
C13         C  0.15821964  0.34569247  0.20267604     0.46500
H14         H  0.15883359  0.34817864  0.16408583    -0.02600
C15         C  0.19418768  0.36406431  0.26976917    -0.16200
C16         C  0.13972467  0.30528678  0.27035998    -0.16000
C17         C  0.13831252  0.35567339  0.27559712    -0.16400
C18         C  0.19473912  0.36649806  0.22205753    -0.16400
C19         C  0.14032265  0.30804181  0.22240831    -0.15900
C20         C  0.13900837  0.35854894  0.22771290    -0.16200
O21         O  0.43712840  0.42831334  0.93473306    -0.79900
O22         O  0.00659366  0.06806349  0.04249652    -0.64600
O23         O  0.48251882  0.49746061  0.95747940    -1.11200
C24         C  0.03518358  0.46801707  0.07092611     1.07000
O25         O  0.05905605  0.08061877  0.04362056    -0.77800
O26         O  0.07997069  0.04187488  0.01664995    -0.65400
Ni27       Ni  0.43530706  0.46743504  0.94131735     1.34900
C28         C  0.07531582  0.03111713  0.97574326     0.85700
O29         O  0.47829777  0.05331802  0.95937152    -0.78300
O30         O  0.42807552  0.00369427  0.94250063    -0.88600
C31         C  0.03863101  0.08923978  0.05031235     0.85300
O32         O  0.41846337  0.45257666  0.00440529    -0.66800
O33         O  0.04424245  0.49604969  0.09003491    -0.86100
C34         C  0.42113947  0.47298414  0.03447015     0.85900
C35         C  0.44817937  0.03695571  0.94331604     1.07700
H36         H  0.48958650  0.49622045  0.06320085     0.39500
O37         O  0.00679337  0.00941916  0.03817207    -1.08700
O38         O  0.04514984  0.00858007  0.96130176    -0.65400
Ni39       Ni  0.00029066  0.47712333  0.99426041     1.26300
O40         O  0.44702289  0.00527819  0.03340079    -0.65600
O41         O  0.01922181  0.45834592  0.03285402    -0.77900
C42         C  0.46097062  0.42380073  0.93139139     0.85500
O43         O  0.49028985  0.44370946  0.94942005    -0.65100
Ni44       Ni  0.05010728  0.03734069  0.06620097     1.27400
Ni45       Ni  0.49270506  0.03211247  0.00003121     1.26100
H46         H  0.49697694  0.00892387  0.92900320     0.40100
O47         O  0.07182403  0.06277713  0.54526185    -0.79900
O48         O  0.43646486  0.49669257  0.44843158    -0.64600
O49         O  0.00166642  0.01472878  0.53883899    -1.11200
C50         C  0.03060189  0.45869480  0.43291847     1.07000
O51         O  0.42054360  0.44244223  0.44950012    -0.77800
O52         O  0.45319801  0.41736014  0.48611120    -0.65400
Ni53       Ni  0.03066621  0.05839155  0.56529742     1.34900
C54         C  0.46618474  0.42239097  0.52565941     0.85700
O55         O  0.45143316  0.02785186  0.53141584    -0.78300
O56         O  0.49082154  0.05618281  0.58627014    -0.88600
C57         C  0.41446035  0.46466761  0.43989693     0.85300
O58         O  0.03796262  0.08809354  0.51334401    -0.66800
O59         O  0.00197687  0.44775461  0.41424023    -0.86100
C60         C  0.02571954  0.08320197  0.47333939     0.86100
C61         C  0.46217777  0.04575047  0.56798935     1.07700
H62         H  0.00492399  0.00687242  0.43316114     0.39500
O63         O  0.49103927  0.49045379  0.45908641    -1.08700
O64         O  0.49194817  0.45224619  0.53740005    -0.65400
Ni65       Ni  0.02277839  0.49716416  0.50411247     1.26300
O66         O  0.50133401  0.05312144  0.46031881    -0.65600
O67         O  0.04182029  0.47798241  0.46786020    -0.77900
C68         C  0.07782289  0.04103285  0.55817762     0.85500
O69         O  0.05648065  0.00897672  0.54954917    -0.65100
Ni70       Ni  0.46219662  0.44662797  0.43263992     1.27400
Ni71       Ni  0.47014931  0.00831475  0.49395725     1.26100
H72         H  0.48777926  0.99825394  0.56463653     0.40100
C73         C  0.10335720  0.18219271  0.08455688    -0.27200
C74         C  0.08199839  0.18764519  0.11098183     0.06400
C75         C  0.04574439  0.16209861  0.11327791     0.26000
C76         C  0.03136365  0.13062610  0.09140675    -0.11700
C77         C  0.05299272  0.12429303  0.06714787    -0.25600
C78         C  0.08910977  0.15093707  0.06262785     0.36800
C79         C  0.09801685  0.21920174  0.13800861     0.06400
F80         F  0.02452328  0.16676356  0.13883972    -0.19400
H81         H  0.00354022  0.11060420  0.09531397     0.16300
F82         F  0.11085553  0.14662385  0.03774301    -0.23100
H83         H  0.13127752  0.20196607  0.08176328     0.18000
C84         C  0.12150350  0.22574599  0.17218897     0.26000
C85         C  0.13580193  0.25508208  0.19873104    -0.11600
C86         C  0.12689996  0.27831949  0.19166363    -0.25700
C87         C  0.10485966  0.27264531  0.15566505     0.37000
C88         C  0.09010598  0.24299956  0.12963384    -0.27300
F89         F  0.12985095  0.20323374  0.18070919    -0.19400
H90         H  0.15356406  0.25946726  0.22525167     0.16300
F91         F  0.09701214  0.29528295  0.14591207    -0.23100
H92         H  0.07261416  0.23866521  0.10271205     0.18100
C93         C  0.28712855  0.43370508  0.17308535    -0.27200
C94         C  0.29193907  0.41417026  0.14224556     0.06400
C95         C  0.26322442  0.37953359  0.13504775     0.26000
C96         C  0.23136007  0.36456833  0.16001908    -0.11700
C97         C  0.22721362  0.38394799  0.19179454    -0.25600
C98         C  0.25493250  0.41914160  0.19649756     0.36800
C99         C  0.32665995  0.43020168  0.11761594     0.06400
F100        F  0.26571338  0.36022565  0.10349899    -0.19400
H101        H  0.21007110  0.33755451  0.15522016     0.16300
F102        F  0.25077302  0.43967099  0.22322115    -0.23100
H103        H  0.30843345  0.46033351  0.17956199     0.18000
C104        C  0.34657879  0.46499976  0.09887946     0.26000
C105        C  0.37870209  0.47952658  0.07512920    -0.11600
C106        C  0.39123311  0.45949065  0.06801111    -0.25700
C107        C  0.37178181  0.42495604  0.08713809     0.37000
C108        C  0.34018814  0.41075276  0.11236794    -0.27300
F109        F  0.33413419  0.48442292  0.10086133    -0.19400
H110        H  0.39273692  0.50583933  0.05956633     0.16300
F111        F  0.38309338  0.40479145  0.08085059    -0.23100
H112        H  0.32607839  0.38429246  0.12731943     0.18100
C113        C  0.06323418  0.40817929  0.09026985    -0.27200
C114        C  0.07480075  0.41576064  0.13579622     0.06400
C115        C  0.07055131  0.43816935  0.16072912     0.26000
C116        C  0.05595045  0.45344301  0.14006559    -0.11700
C117        C  0.04549192  0.44707434  0.09386798    -0.25600
C118        C  0.04888507  0.42380890  0.06924565     0.36800
C119        C  0.09199915  0.40104477  0.15703493     0.06400
F120        F  0.08070175  0.44545999  0.20514239    -0.19400
H121        H  0.05362092  0.47105726  0.16010870     0.16300
F122        F  0.04019573  0.41760680  0.02418155    -0.23100
H123        H  0.06648619  0.39110553  0.07039403     0.18000
C124        C  0.07543832  0.36478863  0.16005180     0.26000
C125        C  0.09116661  0.35120354  0.18239053    -0.11600
C126        C  0.12365300  0.37343373  0.20172843    -0.25700
C127        C  0.14039193  0.40964756  0.19851943     0.37000
C128        C  0.12469715  0.42332388  0.17620729    -0.27300
F129        F  0.04330861  0.34243196  0.14353789    -0.19400
H130        H  0.07696557  0.32318734  0.18707780     0.16300
F131        F  0.17158090  0.43163949  0.21764743    -0.23100
H132        H  0.13795237  0.45136178  0.17415564     0.18100
C133        C  0.06988085  0.17724996  0.43044845    -0.27200
C134        C  0.07214659  0.17542094  0.38211432     0.06400
C135        C  0.05813007  0.14270646  0.36338765     0.26000
C136        C  0.04235749  0.11246212  0.39290201    -0.11700
C137        C  0.04066011  0.11450415  0.44143309    -0.25600
C138        C  0.05427285  0.14726501  0.45982186     0.36800
C139        C  0.08956370  0.20804436  0.35216436     0.06400
F140        F  0.06071503  0.14019035  0.31681407    -0.19400
H141        H  0.03225148  0.08762768  0.37794307     0.16300
F142        F  0.05193492  0.15031825  0.50630840    -0.23100
H143        H  0.08005609  0.20207249  0.44552629     0.18000
C144        C  0.07246353  0.21122490  0.31548544     0.26000
C145        C  0.08869907  0.24288878  0.28929385    -0.11600
C146        C  0.12245902  0.27174976  0.29866521    -0.25700
C147        C  0.13934177  0.26861698  0.33572736     0.37000
C148        C  0.12298981  0.23708236  0.36213995    -0.27300
F149        F  0.03958487  0.18417870  0.30613633    -0.19400
H150        H  0.07470508  0.24497841  0.26190489     0.16300
F151        F  0.17188162  0.29579077  0.34605407    -0.23100
H152        H  0.13653012  0.23524555  0.39045815     0.18100
C153        C  0.26987129  0.42553419  0.34351027    -0.27200
C154        C  0.28657978  0.40908659  0.34671666     0.06400
C155        C  0.27246751  0.37758503  0.32415243     0.26000
C156        C  0.24224606  0.36296119  0.29953024    -0.11700
C157        C  0.22575322  0.37949385  0.29664485    -0.25600
C158        C  0.23993061  0.41106940  0.31833058     0.36800
C159        C  0.31848013  0.42460766  0.37355435     0.06400
F160        F  0.28833985  0.36135744  0.32480502    -0.19400
H161        H  0.23182790  0.33885377  0.28226729     0.16300
F162        F  0.22575751  0.42875379  0.31339145    -0.23100
H163        H  0.27992387  0.44960094  0.36061591     0.18000
C164        C  0.34598861  0.46064132  0.36916961     0.26000
C165        C  0.37664032  0.47408933  0.39267143    -0.11600
C166        C  0.38063292  0.45180121  0.42012729    -0.25700
C167        C  0.35260518  0.41603406  0.42567247     0.37000
C168        C  0.32187614  0.40287845  0.40320254    -0.27300
F169        F  0.34407819  0.48257466  0.34034303    -0.19400
H170        H  0.39784418  0.50161745  0.38763754     0.16300
F171        F  0.35490347  0.39343239  0.45240047    -0.23100
H172        H  0.30077265  0.37534239  0.40853301     0.18100
C173        C  0.06970080  0.42993702  0.34816502    -0.27200
C174        C  0.07726259  0.41147130  0.37799508     0.06400
C175        C  0.07258336  0.41169027  0.42641844     0.26000
C176        C  0.05938567  0.42915961  0.44434631    -0.11700
C177        C  0.05046419  0.44632543  0.41425540    -0.25600
C178        C  0.05624751  0.44705909  0.36603043     0.36800
C179        C  0.09002265  0.39231709  0.35766804     0.06400
F180        F  0.07907513  0.39360616  0.45614272    -0.19400
H181        H  0.05444473  0.42777720  0.48161147     0.16300
F182        F  0.04858515  0.46410114  0.33622442    -0.23100
H183        H  0.07389681  0.43075837  0.31080820     0.18000
C184        C  0.07197645  0.36903632  0.32241735     0.26000
C185        C  0.08671124  0.35518185  0.29831015    -0.11600
C186        C  0.12020061  0.36519449  0.30756293    -0.25700
C187        C  0.13639648  0.38526673  0.34639166     0.37000
C188        C  0.12151895  0.39897018  0.37091679    -0.27300
F189        F  0.04035982  0.36021351  0.31069254    -0.19400
H190        H  0.07208911  0.33708077  0.27171562     0.16300
F191        F  0.16712365  0.39285432  0.35979451    -0.23100
H192        H  0.13544364  0.41615083  0.39880408     0.18100
C193        C  0.44287665  0.10378460  0.87739331    -0.27200
C194        C  0.40718555  0.08876202  0.88340622     0.06400
C195        C  0.38592955  0.05847991  0.91273589     0.26000
C196        C  0.39976061  0.04235354  0.93321297    -0.11700
C197        C  0.43513385  0.05656004  0.92568458    -0.25600
C198        C  0.45689641  0.08804735  0.89875717     0.36800
C199        C  0.39188434  0.10349740  0.85697838     0.06400
F200        F  0.35175265  0.04440889  0.92133787    -0.19400
H201        H  0.38272320  0.01848269  0.95467579     0.16300
F202        F  0.49119987  0.10245179  0.89084156    -0.23100
H203        H  0.45966818  0.12702763  0.85476437     0.18000
C204        C  0.40638626  0.13931767  0.85711596     0.26000
C205        C  0.39193946  0.15280239  0.83119660    -0.11600
C206        C  0.36357361  0.13099864  0.80390922    -0.25700
C207        C  0.34887767  0.09524881  0.80381950     0.37000
C208        C  0.36292179  0.08160803  0.83029583    -0.27300
F209        F  0.43426974  0.16115406  0.88258067    -0.19400
H210        H  0.40334975  0.18043355  0.83155702     0.16300
F211        F  0.32091302  0.07362884  0.77832434    -0.23100
H212        H  0.35156706  0.05400942  0.82933960     0.18100
C213        C  0.42560357  0.28290443  0.82625317    -0.27200
C214        C  0.40685558  0.29385940  0.84731362     0.06400
C215        C  0.37021827  0.27195371  0.84791027     0.26000
C216        C  0.35275731  0.24026020  0.82600407    -0.11700
C217        C  0.37164002  0.23031839  0.80285875    -0.25600
C218        C  0.40809199  0.25130624  0.80401056     0.36800
C219        C  0.42522793  0.32911055  0.86556480     0.06400
F220        F  0.35144792  0.28162245  0.86899594    -0.19400
H221        H  0.32460688  0.22408978  0.82557069     0.16300
F222        F  0.42666928  0.24153622  0.78266318    -0.23100
H223        H  0.45378833  0.29942874  0.82553494     0.18000
C224        C  0.44785624  0.33944773  0.90231421     0.26000
C225        C  0.46152193  0.37153903  0.92238567    -0.11600
C226        C  0.45269425  0.39342846  0.90581186    -0.25700
C227        C  0.43212056  0.38400950  0.86685265     0.37000
C228        C  0.41854920  0.35216751  0.84707980    -0.27300
F229        F  0.45501059  0.31768880  0.92045434    -0.19400
H230        H  0.47733958  0.37836420  0.95231811     0.16300
F231        F  0.42434001  0.40528003  0.84862156    -0.23100
H232        H  0.40191792  0.34498905  0.81797492     0.18100
C233        C  0.13635246  0.05684247  0.86852249    -0.27200
C234        C  0.16891088  0.07579958  0.88859542     0.06400
C235        C  0.17037241  0.07952695  0.93679832     0.26000
C236        C  0.13985039  0.06481984  0.96437987    -0.11700
C237        C  0.10700306  0.04574139  0.94473846    -0.25600
C238        C  0.10554073  0.04155759  0.89630807     0.36800
C239        C  0.20144891  0.09250003  0.85927728     0.06400
F240        F  0.20146434  0.09819352  0.95711846    -0.19400
H241        H  0.14209411  0.06847839  0.00145006     0.16300
F242        F  0.07459179  0.02323088  0.87565881    -0.23100
H243        H  0.13484745  0.05376070  0.83129530     0.18000
C244        C  0.22447184  0.08345558  0.86620427     0.26000
C245        C  0.25561089  0.10013351  0.83905983    -0.11600
C246        C  0.26426294  0.12611087  0.80489387    -0.25700
C247        C  0.24180561  0.13596418  0.79903414     0.37000
C248        C  0.21041124  0.11889587  0.82560617    -0.27300
F249        F  0.21661917  0.05825281  0.89887134    -0.19400
H250        H  0.27281084  0.09248534  0.84424294     0.16300
F251        F  0.25071710  0.16273292  0.76857287    -0.23100
H252        H  0.19341166  0.12681685  0.82071305     0.18100
C253        C  0.42732243  0.07684743  0.65744217    -0.27200
C254        C  0.41064398  0.08712319  0.62955631     0.06400
C255        C  0.40911110  0.08153889  0.58155783     0.26000
C256        C  0.42412215  0.06612678  0.56210148    -0.11700
C257        C  0.44161230  0.05672825  0.58986392    -0.25600
C258        C  0.44281495  0.06205436  0.63796270     0.36800
C259        C  0.39605142  0.10452151  0.65101576     0.06400
F260        F  0.39487173  0.09276067  0.55302308    -0.19400
H261        H  0.42361104  0.06318361  0.52486125     0.16300
F262        F  0.45931177  0.05329680  0.66622360    -0.23100
H263        H  0.42867918  0.08064889  0.69450746     0.18000
C264        C  0.36154812  0.09283929  0.64447874     0.26000
C265        C  0.34764004  0.10793776  0.66798128    -0.11600
C266        C  0.36775509  0.13465573  0.69848927    -0.25700
C267        C  0.40266062  0.14751814  0.70329193     0.37000
C268        C  0.41651793  0.13236812  0.68009527    -0.27300
F269        F  0.34073485  0.06570804  0.61728887    -0.19400
H270        H  0.32070939  0.09784990  0.66379995     0.16300
F271        F  0.42332738  0.17473878  0.73045277    -0.23100
H272        H  0.44332208  0.14230262  0.68501429     0.18100
C273        C  0.45419508  0.35930258  0.62276650    -0.27200
C274        C  0.41994829  0.33010594  0.61669258     0.06400
C275        C  0.40091889  0.33185038  0.58167409     0.26000
C276        C  0.41599389  0.36215575  0.55301965    -0.11700
C277        C  0.45032117  0.39150925  0.55874377    -0.25600
C278        C  0.46932657  0.38984494  0.59415994     0.36800
C279        C  0.40409826  0.29757689  0.64620827     0.06400
F280        F  0.36807665  0.30376910  0.57418367    -0.19400
H281        H  0.40075451  0.36251577  0.52595265     0.16300
F282        F  0.50286147  0.41710846  0.60003070    -0.23100
H283        H  0.46924432  0.35834308  0.64959239     0.18000
C284        C  0.41923799  0.27947555  0.64723071     0.26000
C285        C  0.40290901  0.24772468  0.67329468    -0.11600
C286        C  0.37156655  0.23392611  0.69884323    -0.25700
C287        C  0.35644557  0.25195046  0.69797885     0.37000
C288        C  0.37261470  0.28353606  0.67179557    -0.27300
F289        F  0.44914342  0.29193646  0.62182670    -0.19400
H290        H  0.41471272  0.23392477  0.67372027     0.16300
F291        F  0.32571980  0.23860115  0.72178511    -0.23100
H292        H  0.36049618  0.29702560  0.67124585     0.18100
C293        C  0.21030288  0.07653500  0.68063024    -0.27200
C294        C  0.20692399  0.09706154  0.64838147     0.06400
C295        C  0.23473194  0.13274714  0.64069494     0.26000
C296        C  0.26481116  0.14755289  0.66564107    -0.11700
C297        C  0.26752318  0.12725799  0.69896996    -0.25600
C298        C  0.24039681  0.09141422  0.70558946     0.36800
C299        C  0.17369520  0.08182516  0.62513777     0.06400
F300        F  0.23274323  0.15339225  0.60931010    -0.19400
H301        H  0.28561844  0.17517180  0.65997170     0.16300
F302        F  0.24295647  0.07084159  0.73630347    -0.23100
H303        H  0.18921425  0.04915190  0.68750919     0.18000
C304        C  0.15653397  0.04944725  0.60407466     0.26000
C305        C  0.12501095  0.03575474  0.58274917    -0.11600
C306        C  0.11031812  0.05422722  0.58193850    -0.25700
C307        C  0.12735754  0.08631661  0.60366256     0.37000
C308        C  0.15846465  0.09970258  0.62511367    -0.27300
F309        F  0.17059022  0.03147426  0.60315661    -0.19400
H310        H  0.11244827  0.01108137  0.56619235     0.16300
F311        F  0.11367343  0.10465091  0.60507430    -0.23100
H312        H  0.17051462  0.12406370  0.64234008     0.18100
C313        C  0.33564537  0.66503054  0.70569929     0.46500
H314        H  0.33699841  0.66651427  0.66700079    -0.02600
C315        C  0.33268007  0.66192471  0.79661149     0.46500
H316        H  0.33157331  0.66072734  0.83531532    -0.02600
C317        C  0.35161975  0.64770907  0.72708677    -0.16200
C318        C  0.35477069  0.70087424  0.72714942    -0.16000
C319        C  0.29840205  0.64411459  0.72762107    -0.16400
C320        C  0.34987939  0.64605370  0.77493623    -0.16400
C321        C  0.35342728  0.69917087  0.77483657    -0.15900
C322        C  0.29685796  0.64282892  0.77551455    -0.16200
C323        C  0.15740507  0.84062391  0.29322387     0.46500
H324        H  0.15705392  0.83832832  0.33175969    -0.02600
C325        C  0.15821848  0.84569119  0.20267811     0.46500
H326        H  0.15883221  0.84817737  0.16408791    -0.02600
C327        C  0.19418667  0.86406304  0.26977107    -0.16200
C328        C  0.13972397  0.80528538  0.27036175    -0.16000
C329        C  0.13831117  0.85567156  0.27559960    -0.16400
C330        C  0.19473808  0.86649696  0.22205939    -0.16400
C331        C  0.14032173  0.80804050  0.22241017    -0.15900
C332        C  0.13900710  0.85854743  0.22771536    -0.16200
O333        O  0.43712795  0.92831380  0.93473411    -0.79900
O334        O  0.00659264  0.56806302  0.04249577    -0.64600
O335        O  0.48251877  0.99746060  0.95748182    -1.11200
C336        C  0.03518464  0.96801768  0.07092679     1.07000
O337        O  0.05905495  0.58061820  0.04362064    -0.77800
O338        O  0.07996943  0.54187433  0.01664965    -0.65400
Ni339      Ni  0.43530702  0.96743558  0.94131943     1.34900
C340        C  0.07531459  0.53111673  0.97574288     0.85700
O341        O  0.47829737  0.55331771  0.95936868    -0.78300
O342        O  0.42807533  0.50369366  0.94249760    -0.88600
C343        C  0.03862989  0.58923921  0.05031209     0.85300
O344        O  0.41846325  0.95257675  0.00440721    -0.66800
O345        O  0.04424365  0.99605044  0.09003532    -0.86100
C346        C  0.42113939  0.97298402  0.03447245     0.85900
C347        C  0.44817899  0.53695515  0.94331302     1.07700
H348        H  0.48958719  0.99622068  0.06320341     0.39500
O349        O  0.00679217  0.50941855  0.03817170    -1.08700
O350        O  0.04514866  0.50857954  0.96130135    -0.65400
Ni351      Ni  0.00029183  0.97712396  0.99426085     1.26300
O352        O  0.44702275  0.50527836  0.03339801    -0.65600
O353        O  0.01922291  0.95834648  0.03285464    -0.77900
C354        C  0.46096969  0.92380049  0.93139318     0.85500
O355        O  0.49028875  0.94370863  0.94942251    -0.65100
Ni356      Ni  0.05010606  0.53733999  0.06620078     1.27400
Ni357      Ni  0.49270486  0.53211250  0.00002862     1.26100
H358        H  0.49697695  0.50892388  0.92900063     0.40100
O359        O  0.07182198  0.56277567  0.54526197    -0.79900
O360        O  0.43646559  0.99669262  0.44842897    -0.64600
O361        O  0.00166459  0.51472664  0.53883862    -1.11200
C362        C  0.03060255  0.95869566  0.43291916     1.07000
O363        O  0.42054413  0.94244220  0.44949854    -0.77800
O364        O  0.45319851  0.91735989  0.48610905    -0.65400
Ni365      Ni  0.03066374  0.55838899  0.56529816     1.34900
C366        C  0.46618494  0.92239079  0.52565748     0.85700
O367        O  0.45143232  0.52785145  0.53141876    -0.78300
O368        O  0.49082064  0.55618237  0.58627312    -0.88600
C369        C  0.41446089  0.96466755  0.43989504     0.85300
O370        O  0.03796000  0.58809153  0.51334565    -0.66800
O371        O  0.00197795  0.94775629  0.41424027    -0.86100
C372        C  0.02571811  0.58320033  0.47334030     0.86100
C373        C  0.46217688  0.54575004  0.56799230     1.07700
H374        H  0.00492274  0.50687081  0.43316050     0.39500
O375        O  0.49103981  0.99045362  0.45908413    -1.08700
O376        O  0.49194825  0.95224605  0.53739819    -0.65400
Ni377      Ni  0.02277957  0.99716555  0.50411304     1.26300
O378        O  0.50133311  0.55312140  0.46032161    -0.65600
O379        O  0.04182086  0.97798301  0.46786117    -0.77900
C380        C  0.07782153  0.54103185  0.55817724     0.85500
O381        O  0.05647965  0.50897568  0.54954861    -0.65100
Ni382      Ni  0.46219698  0.94662777  0.43263784     1.27400
Ni383      Ni  0.47014858  0.50831461  0.49395985     1.26100
H384        H  0.48777868  0.49825371  0.56463904     0.40100
C385        C  0.10335575  0.68219191  0.08455752    -0.27200
C386        C  0.08199691  0.68764393  0.11098331     0.06400
C387        C  0.04574292  0.66209717  0.11327949     0.26000
C388        C  0.03136229  0.63062494  0.09140762    -0.11700
C389        C  0.05299143  0.62429230  0.06714801    -0.25600
C390        C  0.08910841  0.65093652  0.06262787     0.36800
C391        C  0.09801532  0.71920034  0.13801044     0.06400
F392        F  0.02452174  0.66676161  0.13884208    -0.19400
H393        H  0.00353890  0.61060288  0.09531494     0.16300
F394        F  0.11085420  0.64662369  0.03774231    -0.23100
H395        H  0.13127604  0.70196544  0.08176372     0.18000
C396        C  0.12150310  0.72574526  0.17218944     0.26000
C397        C  0.13580160  0.75508131  0.19873165    -0.11600
C398        C  0.12689879  0.77831814  0.19166549    -0.25700
C399        C  0.10485727  0.77264326  0.15566834     0.37000
C400        C  0.09010340  0.74299748  0.12963717    -0.27300
F401        F  0.12985167  0.70323375  0.18070814    -0.19400
H402        H  0.15356452  0.75946697  0.22525132     0.16300
F403        F  0.09700878  0.79528028  0.14591672    -0.23100
H404        H  0.07261070  0.73866265  0.10271646     0.18100
C405        C  0.28712808  0.93370402  0.17308831    -0.27200
C406        C  0.29193810  0.91416985  0.14224655     0.06400
C407        C  0.26322286  0.87953382  0.13504688     0.26000
C408        C  0.23135855  0.86456839  0.16001855    -0.11700
C409        C  0.22721265  0.88394731  0.19179614    -0.25600
C410        C  0.25493206  0.91914052  0.19650069     0.36800
C411        C  0.32665912  0.93020121  0.11761712     0.06400
F412        F  0.26571121  0.86022667  0.10349603    -0.19400
H413        H  0.21006920  0.83755498  0.15521818     0.16300
F414        F  0.25077316  0.93966960  0.22322587    -0.23100
H415        H  0.30843336  0.96033197  0.17956640     0.18000
C416        C  0.34657928  0.96500008  0.09888337     0.26000
C417        C  0.37870276  0.97952688  0.07513353    -0.11600
C418        C  0.39123280  0.95949028  0.06801328    -0.25700
C419        C  0.37178021  0.92495489  0.08713771     0.37000
C420        C  0.34018627  0.91075151  0.11236693    -0.27300
F421        F  0.33413587  0.98442423  0.10086752    -0.19400
H422        H  0.39273857  0.00584030  0.05957270     0.16300
F423        F  0.38309079  0.90478962  0.08084827    -0.23100
H424        H  0.32607556  0.88429056  0.12731635     0.18100
C425        C  0.06323383  0.90817880  0.09027226    -0.27200
C426        C  0.07480142  0.91576115  0.13579812     0.06400
C427        C  0.07055304  0.93817089  0.16073018     0.26000
C428        C  0.05595232  0.95344458  0.14006631    -0.11700
C429        C  0.04549281  0.94707492  0.09386916    -0.25600
C430        C  0.04888476  0.92380836  0.06924775     0.36800
C431        C  0.09199933  0.90104484  0.15703726     0.06400
F432        F  0.08070422  0.94546239  0.20514306    -0.19400
H433        H  0.05362363  0.97105961  0.16010883     0.16300
F434        F  0.04019412  0.91760493  0.02418424    -0.23100
H435        H  0.06648490  0.89110417  0.07039706     0.18000
C436        C  0.07543804  0.86478862  0.16005402     0.26000
C437        C  0.09116583  0.85120304  0.18239284    -0.11600
C438        C  0.12365214  0.87343276  0.20173111    -0.25700
C439        C  0.14039147  0.90964666  0.19852246     0.37000
C440        C  0.12469724  0.92332351  0.17621009    -0.27300
F441        F  0.04330833  0.84243230  0.14353994    -0.19400
H442        H  0.07696435  0.82318681  0.18708008     0.16300
F443        F  0.17158031  0.93163816  0.21765102    -0.23100
H444        H  0.13795284  0.95136147  0.17415858     0.18100
C445        C  0.06988149  0.67724884  0.43045007    -0.27200
C446        C  0.07214706  0.67541983  0.38211592     0.06400
C447        C  0.05813017  0.64270536  0.36338906     0.26000
C448        C  0.04235707  0.61246089  0.39290323    -0.11700
C449        C  0.04065950  0.61450279  0.44143430    -0.25600
C450        C  0.05427295  0.64726375  0.45982331     0.36800
C451        C  0.08956398  0.70804317  0.35216598     0.06400
F452        F  0.06071510  0.64018936  0.31681545    -0.19400
H453        H  0.03225068  0.58762643  0.37794410     0.16300
F454        F  0.05193515  0.65031699  0.50630987    -0.23100
H455        H  0.08005713  0.70207142  0.44552800     0.18000
C456        C  0.07246326  0.71122373  0.31548788     0.26000
C457        C  0.08869859  0.74288750  0.28929616    -0.11600
C458        C  0.12245877  0.77174837  0.29866675    -0.25700
C459        C  0.13934209  0.76861558  0.33572806     0.37000
C460        C  0.12299039  0.73708102  0.36214074    -0.27300
F461        F  0.03958429  0.68417766  0.30613980    -0.19400
H462        H  0.07470422  0.74497718  0.26190782     0.16300
F463        F  0.17188221  0.79578931  0.34605391    -0.23100
H464        H  0.13653107  0.73524416  0.39045836     0.18100
C465        C  0.26987013  0.92553281  0.34351240    -0.27200
C466        C  0.28657912  0.90908569  0.34671774     0.06400
C467        C  0.27246702  0.87758426  0.32415324     0.26000
C468        C  0.24224548  0.86296032  0.29953126    -0.11700
C469        C  0.22575219  0.87949256  0.29664676    -0.25600
C470        C  0.23992908  0.91106769  0.31833342     0.36800
C471        C  0.31847979  0.92460702  0.37355470     0.06400
F472        F  0.28833960  0.86135692  0.32480543    -0.19400
H473        H  0.23182756  0.83885313  0.28226785     0.16300
F474        F  0.22575517  0.92875140  0.31339571    -0.23100
H475        H  0.27992259  0.94959941  0.36061840     0.18000
C476        C  0.34598825  0.96064066  0.36916920     0.26000
C477        C  0.37664034  0.97408887  0.39267017    -0.11600
C478        C  0.38063324  0.95180098  0.42012604    -0.25700
C479        C  0.35260550  0.91603387  0.42567204     0.37000
C480        C  0.32187615  0.90287806  0.40320284    -0.27300
F481        F  0.34407736  0.98257375  0.34034276    -0.19400
H482        H  0.39784417  0.00161696  0.38763570     0.16300
F483        F  0.35490406  0.89343244  0.45240017    -0.23100
H484        H  0.30077268  0.87534203  0.40853381     0.18100
C485        C  0.06970076  0.92993639  0.34816689    -0.27200
C486        C  0.07726132  0.91146975  0.37799727     0.06400
C487        C  0.07258151  0.91168858  0.42642054     0.26000
C488        C  0.05938455  0.92915874  0.44434795    -0.11700
C489        C  0.05046433  0.94632550  0.41425667    -0.25600
C490        C  0.05624816  0.94705924  0.36603184     0.36800
C491        C  0.09002089  0.89231494  0.35767063     0.06400
F492        F  0.07907199  0.89360359  0.45614517    -0.19400
H493        H  0.05444317  0.92777622  0.48161300     0.16300
F494        F  0.04858703  0.96410217  0.33622550    -0.23100
H495        H  0.07389724  0.93075790  0.31081015     0.18000
C496        C  0.07197525  0.86903513  0.32241881     0.26000
C497        C  0.08670991  0.85518038  0.29831196    -0.11600
C498        C  0.12019886  0.86519216  0.30756572    -0.25700
C499        C  0.13639398  0.88526324  0.34639561     0.37000
C500        C  0.12151639  0.89896668  0.37092073    -0.27300
F501        F  0.04035939  0.86021363  0.31069239    -0.19400
H502        H  0.07208806  0.83707987  0.27171679     0.16300
F503        F  0.16712060  0.89284993  0.35979949    -0.23100
H504        H  0.13544061  0.91614652  0.39880892     0.18100
C505        C  0.44287610  0.60378381  0.87738992    -0.27200
C506        C  0.40718504  0.58876142  0.88340310     0.06400
C507        C  0.38592910  0.55847941  0.91273305     0.26000
C508        C  0.39976013  0.54235291  0.93320991    -0.11700
C509        C  0.43513333  0.55655931  0.92568134    -0.25600
C510        C  0.45689585  0.58804659  0.89875387     0.36800
C511        C  0.39188386  0.60349711  0.85697568     0.06400
F512        F  0.35175235  0.54440872  0.92133575    -0.19400
H513        H  0.38272276  0.51848216  0.95467291     0.16300
F514        F  0.49119935  0.60245111  0.89083846    -0.23100
H515        H  0.45966765  0.62702675  0.85476085     0.18000
C516        C  0.40638697  0.63931774  0.85711177     0.26000
C517        C  0.39194006  0.65280266  0.83119311    -0.11600
C518        C  0.36357278  0.63099873  0.80390799    -0.25700
C519        C  0.34887569  0.59524859  0.80381963     0.37000
C520        C  0.36292002  0.58160763  0.83029516    -0.27300
F521        F  0.43427168  0.66115433  0.88257449    -0.19400
H522        H  0.40335130  0.68043408  0.83155237     0.16300
F523        F  0.32090972  0.57362850  0.77832658    -0.23100
H524        H  0.35156434  0.55400877  0.82933989     0.18100
C525        C  0.42560250  0.78290505  0.82625321    -0.27200
C526        C  0.40685416  0.79385918  0.84731496     0.06400
C527        C  0.37021686  0.77195290  0.84791245     0.26000
C528        C  0.35275617  0.74025953  0.82600594    -0.11700
C529        C  0.37163917  0.73031857  0.80285926    -0.25600
C530        C  0.40809120  0.75130707  0.80401014     0.36800
C531        C  0.42522618  0.82911012  0.86556660     0.06400
F532        F  0.35144624  0.78162095  0.86899915    -0.19400
H533        H  0.32460569  0.72408860  0.82557330     0.16300
F534        F  0.42666880  0.74153787  0.78266152    -0.23100
H535        H  0.45378727  0.79942987  0.82553433     0.18000
C536        C  0.44785441  0.83944712  0.90231604     0.26000
C537        C  0.46152034  0.87153845  0.92238746    -0.11600
C538        C  0.45269290  0.89342807  0.90581368    -0.25700
C539        C  0.43211904  0.88400915  0.86685461     0.37000
C540        C  0.41854747  0.85216712  0.84708176    -0.27300
F541        F  0.45500848  0.81768797  0.92045619    -0.19400
H542        H  0.47733802  0.87836353  0.95231985     0.16300
F543        F  0.42433860  0.90527979  0.84862358    -0.23100
H544        H  0.40191614  0.84498870  0.81797694     0.18100
C545        C  0.13635143  0.55684374  0.86852187    -0.27200
C546        C  0.16890976  0.57580040  0.88859501     0.06400
C547        C  0.17037117  0.57952701  0.93679806     0.26000
C548        C  0.13984910  0.56481948  0.96437961    -0.11700
C549        C  0.10700185  0.54574139  0.94473802    -0.25600
C550        C  0.10553963  0.54155847  0.89630744     0.36800
C551        C  0.20144789  0.59250092  0.85927711     0.06400
F552        F  0.20146304  0.59819319  0.95711838    -0.19400
H553        H  0.14209272  0.56847740  0.00144994     0.16300
F554        F  0.07459073  0.52323226  0.87565802    -0.23100
H555        H  0.13484653  0.55376259  0.83129455     0.18000
C556        C  0.22447029  0.58345571  0.86620354     0.26000
C557        C  0.25560953  0.60013374  0.83905956    -0.11600
C558        C  0.26426222  0.62611182  0.80489444    -0.25700
C559        C  0.24180541  0.63596583  0.79903524     0.37000
C560        C  0.21041091  0.61889754  0.82560696    -0.27300
F561        F  0.21661683  0.55825204  0.89886954    -0.19400
H562        H  0.27280904  0.59248497  0.84424215     0.16300
F563        F  0.25071745  0.66273507  0.76857455    -0.23100
H564        H  0.19341172  0.62681905  0.82071429     0.18100
C565        C  0.42732307  0.57684965  0.65744344    -0.27200
C566        C  0.41064311  0.58712347  0.62955726     0.06400
C567        C  0.40910872  0.58153691  0.58155940     0.26000
C568        C  0.42411978  0.56612456  0.56210396    -0.11700
C569        C  0.44161146  0.55672801  0.58986659    -0.25600
C570        C  0.44281559  0.56205633  0.63796483     0.36800
C571        C  0.39605043  0.60452200  0.65101573     0.06400
F572        F  0.39486783  0.59275671  0.55302415    -0.19400
H573        H  0.42360744  0.56317966  0.52486408     0.16300
F574        F  0.45931384  0.55330070  0.66622603    -0.23100
H575        H  0.42868096  0.58065281  0.69450831     0.18000
C576        C  0.36154671  0.59283882  0.64447971     0.26000
C577        C  0.34763849  0.60793729  0.66798192    -0.11600
C578        C  0.36775386  0.63465628  0.69848845    -0.25700
C579        C  0.40265979  0.64751976  0.70328980     0.37000
C580        C  0.41651724  0.63236973  0.68009355    -0.27300
F581        F  0.34073318  0.56570663  0.61729130    -0.19400
H582        H  0.32070753  0.59784863  0.66380156     0.16300
F583        F  0.42332676  0.67474137  0.73044917    -0.23100
H584        H  0.44332172  0.64230503  0.68501169     0.18100
C585        C  0.45419440  0.85930292  0.62276616    -0.27200
C586        C  0.41994777  0.83010618  0.61669179     0.06400
C587        C  0.40091873  0.83185031  0.58167248     0.26000
C588        C  0.41599398  0.86215550  0.55301754    -0.11700
C589        C  0.45032113  0.89150915  0.55874210    -0.25600
C590        C  0.46932612  0.88984514  0.59415922     0.36800
C591        C  0.40409764  0.79757727  0.64620777     0.06400
F592        F  0.36807660  0.80376891  0.57418184    -0.19400
H593        H  0.40075490  0.86251530  0.52594988     0.16300
F594        F  0.50286084  0.91710883  0.60003061    -0.23100
H595        H  0.46924334  0.85834359  0.64959267     0.18000
C596        C  0.41923629  0.77947490  0.64722860     0.26000
C597        C  0.40290723  0.74772414  0.67329289    -0.11600
C598        C  0.37156580  0.73392676  0.69884350    -0.25700
C599        C  0.35644593  0.75195222  0.69798078     0.37000
C600        C  0.37261508  0.78353765  0.67179697    -0.27300
F601        F  0.44914074  0.79193474  0.62182275    -0.19400
H602        H  0.41471007  0.73392339  0.67371711     0.16300
F603        F  0.32572115  0.73860412  0.72178903    -0.23100
H604        H  0.36049737  0.79702798  0.67124833     0.18100
C605        C  0.21030107  0.57653568  0.68063184    -0.27200
C606        C  0.20692285  0.59706185  0.64838147     0.06400
C607        C  0.23473127  0.63274717  0.64069382     0.26000
C608        C  0.26481035  0.64755302  0.66564031    -0.11700
C609        C  0.26752182  0.62725849  0.69897058    -0.25600
C610        C  0.24039488  0.59141495  0.70559131     0.36800
C611        C  0.17369427  0.58182541  0.62513716     0.06400
F612        F  0.23274319  0.65339189  0.60930741    -0.19400
H613        H  0.28561803  0.67517172  0.65996995     0.16300
F614        F  0.24295391  0.57084253  0.73630659    -0.23100
H615        H  0.18921205  0.54915280  0.68751167     0.18000
C616        C  0.15653272  0.54944695  0.60407544     0.26000
C617        C  0.12500967  0.53575415  0.58274986    -0.11600
C618        C  0.11031709  0.55422686  0.58193772    -0.25700
C619        C  0.12735703  0.58631700  0.60366006     0.37000
C620        C  0.15846416  0.59970324  0.62511127    -0.27300
F621        F  0.17058865  0.53147364  0.60315892    -0.19400
H622        H  0.11244669  0.51108027  0.56619429     0.16300
F623        F  0.11367342  0.60465180  0.60507012    -0.23100
H624        H  0.17051445  0.62406489  0.64233645     0.18100
C625        C  0.83564551  0.16502971  0.70569951     0.46500
H626        H  0.83699870  0.16651345  0.66700100    -0.02600
C627        C  0.83267980  0.16192384  0.79661172     0.46500
H628        H  0.83157282  0.16072644  0.83531555    -0.02600
C629        C  0.85162002  0.14770847  0.72708730    -0.16200
C630        C  0.85477044  0.20087336  0.72714964    -0.16000
C631        C  0.79840213  0.14411352  0.72762097    -0.16400
C632        C  0.84987946  0.14605308  0.77493677    -0.16400
C633        C  0.85342684  0.19916999  0.77483678    -0.15900
C634        C  0.79685780  0.14282777  0.77551442    -0.16200
C635        C  0.65740502  0.34062491  0.29322282     0.46500
H636        H  0.65705383  0.33832936  0.33175865    -0.02600
C637        C  0.65821852  0.34569221  0.20267705     0.46500
H638        H  0.65883232  0.34817844  0.16408685    -0.02600
C639        C  0.69418662  0.36406401  0.26977008    -0.16200
C640        C  0.63972389  0.30528635  0.27036068    -0.16000
C641        C  0.63831122  0.35567263  0.27559850    -0.16400
C642        C  0.69473807  0.36649791  0.22205842    -0.16400
C643        C  0.64032175  0.30804153  0.22240907    -0.15900
C644        C  0.63900710  0.35854842  0.22771429    -0.16200
O645        O  0.93712729  0.42831303  0.93473392    -0.79900
O646        O  0.50659340  0.06806319  0.04249765    -0.64600
O647        O  0.98251811  0.49746019  0.95748036    -1.11200
C648        C  0.53518381  0.46801744  0.07092590     1.07000
O649        O  0.55905586  0.08061866  0.04362185    -0.77800
O650        O  0.57997029  0.04187493  0.01664978    -0.65400
Ni651      Ni  0.93530635  0.46743492  0.94131816     1.34900
C652        C  0.57531513  0.03111683  0.97574328     0.85700
O653        O  0.97829783  0.05331803  0.95937038    -0.78300
O654        O  0.92807575  0.00369408  0.94249940    -0.88600
C655        C  0.53863073  0.08923958  0.05031338     0.85300
O656        O  0.91846253  0.45257653  0.00440602    -0.66800
O657        O  0.54424228  0.49604986  0.09003491    -0.86100
C658        C  0.92113877  0.47298399  0.03447100     0.85900
C659        C  0.94817942  0.03695554  0.94331485     1.07700
H660        H  0.98958613  0.49622030  0.06320181     0.39500
O661        O  0.50679311  0.00941888  0.03817303    -1.08700
O662        O  0.54514909  0.00857938  0.96130227    -0.65400
Ni663      Ni  0.50029156  0.47712394  0.99425945     1.26300
O664        O  0.94702322  0.00527838  0.03339963    -0.65600
O665        O  0.51922276  0.45834664  0.03285323    -0.77900
C666        C  0.96096926  0.42380007  0.93139240     0.85500
O667        O  0.99028851  0.44370858  0.94942115    -0.65100
Ni668      Ni  0.55010726  0.03734047  0.06620152     1.27400
Ni669      Ni  0.99270535  0.03211270  0.00003012     1.26100
H670        H  0.99697738  0.00892410  0.92900222     0.40100
O671        O  0.57182318  0.06277624  0.54526102    -0.79900
O672        O  0.93646480  0.49669193  0.44842953    -0.64600
O673        O  0.50166571  0.01472767  0.53883767    -1.11200
C674        C  0.53060224  0.45869568  0.43291987     1.07000
O675        O  0.92054334  0.44244151  0.44949870    -0.77800
O676        O  0.95319749  0.41735926  0.48611005    -0.65400
Ni677      Ni  0.53066517  0.05839018  0.56529674     1.34900
C678        C  0.96618419  0.42239013  0.52565828     0.85700
O679        O  0.95143367  0.02785261  0.53141767    -0.78300
O680        O  0.99082281  0.05618462  0.58627083    -0.88600
C681        C  0.91446019  0.46466692  0.43989518     0.85300
O682        O  0.53796164  0.08809245  0.51334374    -0.66800
O683        O  0.50197733  0.44775567  0.41424144    -0.86100
C684        C  0.52571924  0.08320112  0.47333871     0.86100
C685        C  0.96217870  0.04575177  0.56799067     1.07700
H686        H  0.50492360  0.00687150  0.43315980     0.39500
O687        O  0.99103896  0.49045287  0.45908492    -1.08700
O688        O  0.99194781  0.45224532  0.53739872    -0.65400
Ni689      Ni  0.52277875  0.49716504  0.50411389     1.26300
O690        O  0.00133404  0.05312220  0.46032008    -0.65600
O691        O  0.54182060  0.47798325  0.46786163    -0.77900
C692        C  0.57782230  0.04103212  0.55817652     0.85500
O693        O  0.55648023  0.00897598  0.54954789    -0.65100
Ni694      Ni  0.96219624  0.44662703  0.43263860     1.27400
Ni695      Ni  0.97014973  0.00831558  0.49395886     1.26100
H696        H  0.98778014  0.99825522  0.56463809     0.40100
C697        C  0.60335660  0.18219276  0.08455716    -0.27200
C698        C  0.58199774  0.18764509  0.11098228     0.06400
C699        C  0.54574374  0.16209839  0.11327838     0.26000
C700        C  0.53136314  0.13062587  0.09140732    -0.11700
C701        C  0.55299229  0.12429289  0.06714852    -0.25600
C702        C  0.58910928  0.15093709  0.06262825     0.36800
C703        C  0.59801613  0.21920161  0.13800914     0.06400
F704        F  0.52452252  0.16676319  0.13884017    -0.19400
H705        H  0.50353973  0.11060386  0.09531464     0.16300
F706        F  0.61085511  0.14662399  0.03774332    -0.23100
H707        H  0.63127690  0.20196624  0.08176339     0.18000
C708        C  0.62150371  0.22574653  0.17218844     0.26000
C709        C  0.63580201  0.25508255  0.19873065    -0.11600
C710        C  0.62689914  0.27831930  0.19166426    -0.25700
C711        C  0.60485791  0.27264449  0.15566673     0.37000
C712        C  0.59010426  0.24299876  0.12963551    -0.27300
F713        F  0.62985219  0.20323499  0.18070753    -0.19400
H714        H  0.65356477  0.25946819  0.22525056     0.16300
F715        F  0.59700947  0.29528151  0.14591478    -0.23100
H716        H  0.57261174  0.23866394  0.10271454     0.18100
C717        C  0.78712795  0.43370470  0.17308702    -0.27200
C718        C  0.79193817  0.41417015  0.14224630     0.06400
C719        C  0.76322319  0.37953380  0.13504763     0.26000
C720        C  0.73135881  0.36456857  0.16001896    -0.11700
C721        C  0.72721265  0.38394795  0.19179536    -0.25600
C722        C  0.75493191  0.41914131  0.19649924     0.36800
C723        C  0.82665910  0.43020151  0.11761670     0.06400
F724        F  0.76571187  0.36022614  0.10349804    -0.19400
H725        H  0.71006961  0.33755497  0.15521933     0.16300
F726        F  0.75077284  0.43967059  0.22322372    -0.23100
H727        H  0.80843309  0.46033287  0.17956438     0.18000
C728        C  0.84657849  0.46499992  0.09888133     0.26000
C729        C  0.87870181  0.47952670  0.07513109    -0.11600
C730        C  0.89123240  0.45949049  0.06801205    -0.25700
C731        C  0.87178061  0.42495558  0.08713809     0.37000
C732        C  0.84018684  0.41075227  0.11236774    -0.27300
F733        F  0.83413443  0.48442354  0.10086430    -0.19400
H734        H  0.89273703  0.50583972  0.05956903     0.16300
F735        F  0.88309182  0.40479074  0.08084987    -0.23100
H736        H  0.82607671  0.38429171  0.12731840     0.18100
C737        C  0.56323397  0.40817944  0.09027087    -0.27200
C738        C  0.57480031  0.41576085  0.13579735     0.06400
C739        C  0.57055066  0.43816952  0.16072998     0.26000
C740        C  0.55595000  0.45344322  0.14006600    -0.11700
C741        C  0.54549181  0.44707458  0.09386824    -0.25600
C742        C  0.54888496  0.42380901  0.06924627     0.36800
C743        C  0.59199845  0.40104488  0.15703650     0.06400
F744        F  0.58070065  0.44546001  0.20514345    -0.19400
H745        H  0.55362034  0.47105747  0.16010890     0.16300
F746        F  0.54019562  0.41760664  0.02418220    -0.23100
H747        H  0.56648604  0.39110563  0.07039530     0.18000
C748        C  0.57543759  0.36478875  0.16005294     0.26000
C749        C  0.59116565  0.35120347  0.18239176    -0.11600
C750        C  0.62365188  0.37343346  0.20173012    -0.25700
C751        C  0.64039073  0.40964729  0.19852188     0.37000
C752        C  0.62469618  0.42332381  0.17620964    -0.27300
F753        F  0.54330803  0.34243223  0.14353853    -0.19400
H754        H  0.57696448  0.32318727  0.18707885     0.16300
F755        F  0.67157939  0.43163900  0.21765075    -0.23100
H756        H  0.63795136  0.45136171  0.17415845     0.18100
C757        C  0.56988204  0.17724947  0.43044834    -0.27200
C758        C  0.57214740  0.17542046  0.38211416     0.06400
C759        C  0.55813046  0.14270596  0.36338730     0.26000
C760        C  0.54235760  0.11246153  0.39290151    -0.11700
C761        C  0.54066035  0.11450349  0.44143261    -0.25600
C762        C  0.55427377  0.14726444  0.45982161     0.36800
C763        C  0.58956421  0.20804385  0.35216429     0.06400
F764        F  0.56071516  0.14018990  0.31681365    -0.19400
H765        H  0.53225118  0.08762705  0.37794240     0.16300
F766        F  0.55193618  0.15031771  0.50630820    -0.23100
H767        H  0.58005765  0.20207204  0.44552632     0.18000
C768        C  0.57246365  0.21122428  0.31548582     0.26000
C769        C  0.58869882  0.24288817  0.28929443    -0.11600
C770        C  0.62245872  0.27174930  0.29866562    -0.25700
C771        C  0.63934185  0.26861664  0.33572733     0.37000
C772        C  0.62299030  0.23708197  0.36213967    -0.27300
F773        F  0.53958496  0.18417797  0.30613705    -0.19400
H774        H  0.57470454  0.24497772  0.26190582     0.16300
F775        F  0.67188164  0.29579060  0.34605391    -0.23100
H776        H  0.63653088  0.23524525  0.39045756     0.18100
C777        C  0.76987022  0.42553333  0.34351144    -0.27200
C778        C  0.78657886  0.40908584  0.34671692     0.06400
C779        C  0.77246655  0.37758443  0.32415230     0.26000
C780        C  0.74224505  0.36296074  0.29953033    -0.11700
C781        C  0.72575211  0.37949333  0.29664572    -0.25600
C782        C  0.73992937  0.41106860  0.31833216     0.36800
C783        C  0.81847946  0.42460690  0.37355397     0.06400
F784        F  0.78833891  0.36135686  0.32480429    -0.19400
H785        H  0.73182691  0.33885350  0.28226693     0.16300
F786        F  0.72575603  0.42875282  0.31339397    -0.23100
H787        H  0.77992284  0.44959995  0.36061746     0.18000
C788        C  0.84598796  0.46064053  0.36916891     0.26000
C789        C  0.87663991  0.47408855  0.39267012    -0.11600
C790        C  0.88063269  0.45180046  0.42012574    -0.25700
C791        C  0.85260496  0.41603330  0.42567112     0.37000
C792        C  0.82187571  0.40287770  0.40320177    -0.27300
F793        F  0.84407725  0.48257384  0.34034267    -0.19400
H794        H  0.89784376  0.50161666  0.38763605     0.16300
F795        F  0.85490343  0.39343163  0.45239881    -0.23100
H796        H  0.80077222  0.37534164  0.40853240     0.18100
C797        C  0.56970121  0.42993773  0.34816680    -0.27200
C798        C  0.57726206  0.41147119  0.37799685     0.06400
C799        C  0.57258236  0.41168981  0.42642018     0.26000
C800        C  0.55938503  0.42915951  0.44434799    -0.11700
C801        C  0.55046442  0.44632609  0.41425703    -0.25600
C802        C  0.55624833  0.44706020  0.36603215     0.36800
C803        C  0.59002166  0.39231655  0.35766982     0.06400
F804        F  0.57907329  0.39360501  0.45614447    -0.19400
H805        H  0.55444367  0.42777678  0.48161308     0.16300
F806        F  0.54858694  0.46410309  0.33622615    -0.23100
H807        H  0.57389764  0.43075940  0.31081002     0.18000
C808        C  0.57197560  0.36903634  0.32241853     0.26000
C809        C  0.58671012  0.35518157  0.29831138    -0.11600
C810        C  0.62019922  0.36519354  0.30756459    -0.25700
C811        C  0.63639484  0.38526515  0.34639388     0.37000
C812        C  0.62151748  0.39896875  0.37091913    -0.27300
F813        F  0.54035943  0.36021443  0.31069301    -0.19400
H814        H  0.57208805  0.33708087  0.27171648     0.16300
F815        F  0.66712170  0.39285214  0.35979711    -0.23100
H816        H  0.63544203  0.41614894  0.39880688     0.18100
C817        C  0.94287646  0.10378427  0.87739206    -0.27200
C818        C  0.90718528  0.08876148  0.88340456     0.06400
C819        C  0.88592926  0.05847923  0.91273403     0.26000
C820        C  0.89976039  0.04235294  0.93321119    -0.11700
C821        C  0.93513373  0.05655969  0.92568324    -0.25600
C822        C  0.95689629  0.08804717  0.89875616     0.36800
C823        C  0.89188405  0.10349694  0.85697684     0.06400
F824        F  0.85175232  0.04440807  0.92133585    -0.19400
H825        H  0.88272296  0.01848199  0.95467382     0.16300
F826        F  0.99119988  0.10245196  0.89084115    -0.23100
H827        H  0.95966805  0.12702742  0.85476333     0.18000
C828        C  0.90638621  0.13931729  0.85711418     0.26000
C829        C  0.89193918  0.15280202  0.83119535    -0.11600
C830        C  0.86357281  0.13099820  0.80390881    -0.25700
C831        C  0.84887668  0.09524831  0.80381923     0.37000
C832        C  0.86292109  0.08160754  0.83029494    -0.27300
F833        F  0.93427008  0.16115376  0.88257823    -0.19400
H834        H  0.90334968  0.18043323  0.83155556     0.16300
F835        F  0.82091155  0.07362828  0.77832485    -0.23100
H836        H  0.85156617  0.05400889  0.82933880     0.18100
C837        C  0.92560189  0.28290412  0.82625361    -0.27200
C838        C  0.90685359  0.29385856  0.84731462     0.06400
C839        C  0.87021629  0.27195247  0.84791158     0.26000
C840        C  0.85275561  0.24025900  0.82600530    -0.11700
C841        C  0.87163861  0.23031773  0.80285941    -0.25600
C842        C  0.90809060  0.25130605  0.80401079     0.36800
C843        C  0.92522569  0.32910957  0.86556610     0.06400
F844        F  0.85144566  0.28162076  0.86899759    -0.19400
H845        H  0.82460515  0.22408822  0.82557222     0.16300
F846        F  0.92666819  0.24153659  0.78266284    -0.23100
H847        H  0.95378666  0.29942879  0.82553511     0.18000
C848        C  0.94785418  0.33944676  0.90231529     0.26000
C849        C  0.96152014  0.37153814  0.92238662    -0.11600
C850        C  0.95269252  0.39342764  0.90581296    -0.25700
C851        C  0.93211848  0.38400858  0.86685407     0.37000
C852        C  0.91854686  0.35216650  0.84708133    -0.27300
F853        F  0.95500848  0.31768776  0.92045528    -0.19400
H854        H  0.97733799  0.37836334  0.95231885     0.16300
F855        F  0.92433791  0.40527913  0.84862314    -0.23100
H856        H  0.90191541  0.34498800  0.81797665     0.18100
C857        C  0.63635116  0.05684288  0.86852167    -0.27200
C858        C  0.66890960  0.07579922  0.88859451     0.06400
C859        C  0.67037135  0.07952592  0.93679754     0.26000
C860        C  0.63984949  0.06481882  0.96437938    -0.11700
C861        C  0.60700213  0.04574109  0.94473810    -0.25600
C862        C  0.60553957  0.04155803  0.89630754     0.36800
C863        C  0.70144753  0.09249945  0.85927633     0.06400
F864        F  0.70146335  0.09819175  0.95711755    -0.19400
H865        H  0.64209335  0.06847678  0.00144969     0.16300
F866        F  0.57459054  0.02323213  0.87565843    -0.23100
H867        H  0.63484602  0.05376169  0.83129436     0.18000
C868        C  0.72446959  0.08345376  0.86620225     0.26000
C869        C  0.75560887  0.10013182  0.83905838    -0.11600
C870        C  0.76426189  0.12611038  0.80489390    -0.25700
C871        C  0.74180534  0.13596473  0.79903503     0.37000
C872        C  0.71041082  0.11889644  0.82560667    -0.27300
F873        F  0.71661582  0.05824968  0.89886775    -0.19400
H874        H  0.77280820  0.09248279  0.84424064     0.16300
F875        F  0.75071772  0.16273436  0.76857489    -0.23100
H876        H  0.69341186  0.12681828  0.82071440     0.18100
C877        C  0.92732399  0.07684979  0.65744288    -0.27200
C878        C  0.91064419  0.08712396  0.62955703     0.06400
C879        C  0.90911037  0.08153836  0.58155891     0.26000
C880        C  0.92412176  0.06612651  0.56210290    -0.11700
C881        C  0.94161324  0.05672956  0.58986525    -0.25600
C882        C  0.94281689  0.06205701  0.63796370     0.36800
C883        C  0.89605121  0.10452202  0.65101608     0.06400
F884        F  0.89486968  0.09275862  0.55302404    -0.19400
H885        H  0.92360981  0.06318227  0.52486288     0.16300
F886        F  0.95931495  0.05330097  0.66622457    -0.23100
H887        H  0.92868148  0.08065225  0.69450792     0.18000
C888        C  0.86154754  0.09283888  0.64447975     0.26000
C889        C  0.84763915  0.10793711  0.66798212    -0.11600
C890        C  0.86775428  0.13465577  0.69848917    -0.25700
C891        C  0.90266011  0.14751909  0.70329107     0.37000
C892        C  0.91651774  0.13236932  0.68009459    -0.27300
F893        F  0.84073425  0.06570702  0.61729076    -0.19400
H894        H  0.82070825  0.09784855  0.66380142     0.16300
F895        F  0.92332681  0.17474030  0.73045113    -0.23100
H896        H  0.94332216  0.14230455  0.68501304     0.18100
C897        C  0.95419368  0.35930191  0.62276637    -0.27200
C898        C  0.91994682  0.33010542  0.61669246     0.06400
C899        C  0.90091758  0.33184992  0.58167380     0.26000
C900        C  0.91599290  0.36215518  0.55301897    -0.11700
C901        C  0.95032031  0.39150852  0.55874297    -0.25600
C902        C  0.96932545  0.38984419  0.59415953     0.36800
C903        C  0.90409675  0.29757636  0.64620813     0.06400
F904        F  0.86807521  0.30376880  0.57418357    -0.19400
H905        H  0.90075367  0.36251525  0.52595177     0.16300
F906        F  0.00286039  0.41710759  0.60003040    -0.23100
H907        H  0.96924277  0.35834234  0.64959242     0.18000
C908        C  0.91923572  0.27947428  0.64722906     0.26000
C909        C  0.90290687  0.24772354  0.67329328    -0.11600
C910        C  0.87156530  0.23392583  0.69884370    -0.25700
C911        C  0.85644503  0.25195089  0.69798077     0.37000
C912        C  0.87261401  0.28353636  0.67179710    -0.27300
F913        F  0.94914029  0.29193441  0.62182335    -0.19400
H914        H  0.91470999  0.23392306  0.67371763     0.16300
F915        F  0.82572003  0.23860238  0.72178868    -0.23100
H916        H  0.86049604  0.29702644  0.67124844     0.18100
C917        C  0.71030179  0.07653451  0.68063049    -0.27200
C918        C  0.70692317  0.09706097  0.64838117     0.06400
C919        C  0.73473125  0.13274650  0.64069444     0.26000
C920        C  0.76481030  0.14755230  0.66564093    -0.11700
C921        C  0.76752208  0.12725749  0.69897025    -0.25600
C922        C  0.74039560  0.09141376  0.70558996     0.36800
C923        C  0.67369452  0.08182461  0.62513710     0.06400
F924        F  0.73274285  0.15339150  0.60930898    -0.19400
H925        H  0.78561767  0.17517116  0.65997137     0.16300
F926        F  0.74295506  0.07084116  0.73630430    -0.23100
H927        H  0.68921306  0.04915146  0.68750960     0.18000
C928        C  0.65653312  0.04944646  0.60407459     0.26000
C929        C  0.62501018  0.03575395  0.58274886    -0.11600
C930        C  0.61031762  0.05422668  0.58193732    -0.25700
C931        C  0.62735732  0.08631642  0.60366059     0.37000
C932        C  0.65846429  0.09970233  0.62511202    -0.27300
F933        F  0.67058909  0.03147319  0.60315739    -0.19400
H934        H  0.61244733  0.01108035  0.56619261     0.16300
F935        F  0.61367365  0.10465115  0.60507127    -0.23100
H936        H  0.67051440  0.12406367  0.64233793     0.18100
C937        C  0.83564653  0.66503089  0.70569885     0.46500
H938        H  0.83699960  0.66651460  0.66700035    -0.02600
C939        C  0.83268115  0.66192521  0.79661103     0.46500
H940        H  0.83157438  0.66072792  0.83531486    -0.02600
C941        C  0.85162085  0.64770939  0.72708648    -0.16200
C942        C  0.85477192  0.70087460  0.72714893    -0.16000
C943        C  0.79840317  0.64411506  0.72762056    -0.16400
C944        C  0.84988042  0.64605411  0.77493597    -0.16400
C945        C  0.85342846  0.69917132  0.77483605    -0.15900
C946        C  0.79685904  0.64282942  0.77551407    -0.16200
C947        C  0.65740601  0.84062443  0.29322328     0.46500
H948        H  0.65705477  0.83832903  0.33175913    -0.02600
C949        C  0.65821958  0.84569135  0.20267747     0.46500
H950        H  0.65883348  0.84817746  0.16408726    -0.02600
C951        C  0.69418764  0.86406327  0.26977059    -0.16200
C952        C  0.63972467  0.80528573  0.27036148    -0.16000
C953        C  0.63831237  0.85567225  0.27559854    -0.16400
C954        C  0.69473910  0.86649701  0.22205892    -0.16400
C955        C  0.64032257  0.80804068  0.22240984    -0.15900
C956        C  0.63900833  0.85854789  0.22771427    -0.16200
O957        O  0.93712872  0.92831387  0.93473343    -0.79900
O958        O  0.50659312  0.56806332  0.04249497    -0.64600
O959        O  0.98251926  0.99746085  0.95748078    -1.11200
C960        C  0.53518473  0.96801740  0.07092684     1.07000
O961        O  0.55905538  0.58061835  0.04361949    -0.77800
O962        O  0.57997009  0.54187436  0.01664978    -0.65400
Ni963      Ni  0.93530749  0.96743554  0.94131849     1.34900
C964        C  0.57531552  0.53111725  0.97574275     0.85700
O965        O  0.97829714  0.55331758  0.95936948    -0.78300
O966        O  0.92807496  0.50369373  0.94249842    -0.88600
C967        C  0.53863039  0.58923940  0.05031134     0.85300
O968        O  0.91846378  0.95257684  0.00440634    -0.66800
O969        O  0.54424407  0.99605030  0.09003526    -0.86100
C970        C  0.92113987  0.97298416  0.03447147     0.85900
C971        C  0.94817879  0.53695519  0.94331383     1.07700
H972        H  0.98958731  0.99622084  0.06320239     0.39500
O973        O  0.50679270  0.50941889  0.03817078    -1.08700
O974        O  0.54514965  0.50858050  0.96130069    -0.65400
Ni975      Ni  0.50029123  0.97712351  0.99426172     1.26300
O976        O  0.94702221  0.50527817  0.03339895    -0.65600
O977        O  0.51922238  0.95834595  0.03285518    -0.77900
C978        C  0.96097070  0.92380088  0.93139239     0.85500
O979        O  0.99028975  0.94370926  0.94942161    -0.65100
Ni980      Ni  0.55010635  0.53734024  0.06620026     1.27400
Ni981      Ni  0.99270436  0.53211218  0.00002951     1.26100
H982        H  0.99697627  0.50892341  0.92900161     0.40100
O983        O  0.57182254  0.56277657  0.54526315    -0.79900
O984        O  0.93646573  0.99669324  0.44843091    -0.64600
O985        O  0.50166507  0.51472759  0.53884015    -1.11200
C986        C  0.53060227  0.95869501  0.43291771     1.07000
O987        O  0.92054444  0.94244289  0.44950012    -0.77800
O988        O  0.95319904  0.91736075  0.48611037    -0.65400
Ni989      Ni  0.53066440  0.55839012  0.56529930     1.34900
C990        C  0.96618549  0.92239166  0.52565879     0.85700
O991        O  0.95143209  0.52785090  0.53141670    -0.78300
O992        O  0.99081987  0.55618102  0.58627188    -0.88600
C993        C  0.91446111  0.96466819  0.43989680     0.85300
O994        O  0.53796053  0.58809254  0.51334662    -0.66800
O995        O  0.50197757  0.94775543  0.41423899    -0.86100
C996        C  0.52571811  0.58320115  0.47334159     0.86100
C997        C  0.96217636  0.54574909  0.56799063     1.07700
H998        H  0.50492294  0.50687171  0.43316219     0.39500
O999        O  0.99104019  0.99045447  0.45908556    -1.08700
O1000       O  0.99194863  0.95224696  0.53739962    -0.65400
Ni1001     Ni  0.52277912  0.99716471  0.50411170     1.26300
O1002       O  0.00133325  0.55312065  0.46031994    -0.65600
O1003       O  0.54182059  0.97798239  0.46785970    -0.77900
C1004       C  0.57782196  0.54103264  0.55817848     0.85500
O1005       O  0.55647998  0.50897647  0.54954997    -0.65100
Ni1006     Ni  0.96219735  0.94662860  0.43263925     1.27400
Ni1007     Ni  0.97014834  0.50831387  0.49395807     1.26100
H1008       H  0.98777804  0.49825264  0.56463739     0.40100
C1009       C  0.60335647  0.68219179  0.08455781    -0.27200
C1010       C  0.58199761  0.68764396  0.11098325     0.06400
C1011       C  0.54574361  0.66209734  0.11327917     0.26000
C1012       C  0.53136293  0.63062513  0.09140723    -0.11700
C1013       C  0.55299204  0.62429239  0.06714774    -0.25600
C1014       C  0.58910909  0.65093644  0.06262804     0.36800
C1015       C  0.59801602  0.71920036  0.13801036     0.06400
F1016       F  0.52452245  0.66676194  0.13884148    -0.19400
H1017       H  0.50353950  0.61060318  0.09531429     0.16300
F1018       F  0.61085490  0.64662351  0.03774274    -0.23100
H1019       H  0.63127679  0.70196519  0.08176434     0.18000
C1020       C  0.62150287  0.72574464  0.17219043     0.26000
C1021       C  0.63580145  0.75508074  0.19873252    -0.11600
C1022       C  0.62689954  0.77831821  0.19166532    -0.25700
C1023       C  0.60485894  0.77264394  0.15566713     0.37000
C1024       C  0.59010506  0.74299815  0.12963595    -0.27300
F1025       F  0.62985045  0.70323245  0.18071023    -0.19400
H1026       H  0.65356374  0.75946594  0.22525292     0.16300
F1027       F  0.59701135  0.79528156  0.14591447    -0.23100
H1028       H  0.57261309  0.73866379  0.10271440     0.18100
C1029       C  0.78712876  0.93370431  0.17308737    -0.27200
C1030       C  0.79193911  0.91416992  0.14224651     0.06400
C1031       C  0.76322423  0.87953355  0.13504768     0.26000
C1032       C  0.73135990  0.86456808  0.16001922    -0.11700
C1033       C  0.72721364  0.88394726  0.19179584    -0.25600
C1034       C  0.75493270  0.91914070  0.19649966     0.36800
C1035       C  0.82666008  0.93020139  0.11761700     0.06400
F1036       F  0.76571293  0.86022612  0.10349774    -0.19400
H1037       H  0.71007079  0.83755446  0.15521952     0.16300
F1038       F  0.75077339  0.93966985  0.22322406    -0.23100
H1039       H  0.80843379  0.96033250  0.17956483     0.18000
C1040       C  0.84657967  0.96499996  0.09888222     0.26000
C1041       C  0.87870304  0.97952680  0.07513210    -0.11600
C1042       C  0.89123342  0.95949046  0.06801244    -0.25700
C1043       C  0.87178137  0.92495535  0.08713775     0.37000
C1044       C  0.84018764  0.91075202  0.11236747    -0.27300
F1045       F  0.83413578  0.98442371  0.10086558    -0.19400
H1046       H  0.89273844  0.00583998  0.05957054     0.16300
F1047       F  0.88309223  0.90479028  0.08084867    -0.23100
H1048       H  0.82607737  0.88429133  0.12731767     0.18100
C1049       C  0.56323423  0.90817863  0.09027121    -0.27200
C1050       C  0.57480203  0.91576094  0.13579696     0.06400
C1051       C  0.57055385  0.93817074  0.16072926     0.26000
C1052       C  0.55595300  0.95344442  0.14006578    -0.11700
C1053       C  0.54549318  0.94707474  0.09386877    -0.25600
C1054       C  0.54888511  0.92380827  0.06924703     0.36800
C1055       C  0.59200015  0.90104472  0.15703573     0.06400
F1056       F  0.58070543  0.94546236  0.20514196    -0.19400
H1057       H  0.55362443  0.97105945  0.16010849     0.16300
F1058       F  0.54019446  0.91760507  0.02418350    -0.23100
H1059       H  0.56648522  0.89110404  0.07039579     0.18000
C1060       C  0.57543885  0.86478850  0.16005301     0.26000
C1061       C  0.59116683  0.85120309  0.18239181    -0.11600
C1062       C  0.62365330  0.87343300  0.20172965    -0.25700
C1063       C  0.64039273  0.90964692  0.19852019     0.37000
C1064       C  0.62469832  0.92332357  0.17620783    -0.27300
F1065       F  0.54330896  0.84243204  0.14353949    -0.19400
H1066       H  0.57696545  0.82318687  0.18707928     0.16300
F1067       F  0.67158186  0.93163863  0.21764793    -0.23100
H1068       H  0.63795397  0.95136154  0.17415580     0.18100
C1069       C  0.56987997  0.67724933  0.43045087    -0.27200
C1070       C  0.57214607  0.67542034  0.38211679     0.06400
C1071       C  0.55812970  0.64270591  0.36339012     0.26000
C1072       C  0.54235683  0.61246153  0.39290442    -0.11700
C1073       C  0.54065896  0.61450346  0.44143545    -0.25600
C1074       C  0.55427162  0.64726430  0.45982425     0.36800
C1075       C  0.58956330  0.70804368  0.35216672     0.06400
F1076       F  0.56071507  0.64018990  0.31681660    -0.19400
H1077       H  0.53225096  0.58762712  0.37794546     0.16300
F1078       F  0.55193331  0.65031746  0.50631074    -0.23100
H1079       H  0.58005516  0.70207187  0.44552865     0.18000
C1080       C  0.57246302  0.71122431  0.31548804     0.26000
C1081       C  0.58869875  0.74288804  0.28929607    -0.11600
C1082       C  0.62245897  0.77174878  0.29866684    -0.25700
C1083       C  0.63934187  0.76861590  0.33572867     0.37000
C1084       C  0.62298971  0.73708142  0.36214171    -0.27300
F1085       F  0.53958413  0.68417831  0.30613952    -0.19400
H1086       H  0.57470470  0.74497778  0.26190730     0.16300
F1087       F  0.67188207  0.79578943  0.34605460    -0.23100
H1088       H  0.63653009  0.73524450  0.39045970     0.18100
C1089       C  0.76987103  0.92553338  0.34351188    -0.27200
C1090       C  0.78657993  0.90908620  0.34671782     0.06400
C1091       C  0.77246793  0.87758473  0.32415347     0.26000
C1092       C  0.74224644  0.86296069  0.29953132    -0.11700
C1093       C  0.72575317  0.87949294  0.29664634    -0.25600
C1094       C  0.73993013  0.91106824  0.31833256     0.36800
C1095       C  0.81848041  0.92460755  0.37355525     0.06400
F1096       F  0.78834055  0.86135743  0.32480601    -0.19400
H1097       H  0.73182855  0.83885341  0.28226814     0.16300
F1098       F  0.72575641  0.92875209  0.31339416    -0.23100
H1099       H  0.77992343  0.94960004  0.36061767     0.18000
C1100       C  0.84598884  0.96064120  0.36916992     0.26000
C1101       C  0.87664072  0.97408947  0.39267144    -0.11600
C1102       C  0.88063349  0.95180161  0.42012762    -0.25700
C1103       C  0.85260577  0.91603448  0.42567347     0.37000
C1104       C  0.82187659  0.90287862  0.40320375    -0.27300
F1105       F  0.84407818  0.98257424  0.34034302    -0.19400
H1106       H  0.89784455  0.00161757  0.38763706     0.16300
F1107       F  0.85490423  0.89343309  0.45240185    -0.23100
H1108       H  0.80077314  0.87534257  0.40853458     0.18100
C1109       C  0.56970061  0.92993601  0.34816518    -0.27200
C1110       C  0.57726184  0.91146996  0.37799559     0.06400
C1111       C  0.57258227  0.91168897  0.42641887     0.26000
C1112       C  0.55938501  0.92915883  0.44434630    -0.11700
C1113       C  0.55046419  0.94632507  0.41425504    -0.25600
C1114       C  0.55624764  0.94705851  0.36603015     0.36800
C1115       C  0.59002179  0.89231550  0.35766899     0.06400
F1116       F  0.57907329  0.89360443  0.45614350    -0.19400
H1117       H  0.55444387  0.92777649  0.48161139     0.16300
F1118       F  0.54858577  0.96410078  0.33622378    -0.23100
H1119       H  0.57389683  0.93075731  0.31080842     0.18000
C1120       C  0.57197607  0.86903524  0.32241763     0.26000
C1121       C  0.58671096  0.85518072  0.29831080    -0.11600
C1122       C  0.62020011  0.86519302  0.30756433    -0.25700
C1123       C  0.63639536  0.88526456  0.34639381     0.37000
C1124       C  0.62151763  0.89896792  0.37091875    -0.27300
F1125       F  0.54035986  0.86021303  0.31069172    -0.19400
H1126       H  0.57208909  0.83707990  0.27171594     0.16300
F1127       F  0.66712216  0.89285166  0.35979755    -0.23100
H1128       H  0.63544192  0.91614810  0.39880662     0.18100
C1129       C  0.94287615  0.60378388  0.87739054    -0.27200
C1130       C  0.90718520  0.58876179  0.88340431     0.06400
C1131       C  0.88592929  0.55848000  0.91273461     0.26000
C1132       C  0.89976025  0.54235344  0.93321141    -0.11700
C1133       C  0.93513332  0.55655951  0.92568225    -0.25600
C1134       C  0.95689582  0.58804652  0.89875425     0.36800
C1135       C  0.89188407  0.60349741  0.85697682     0.06400
F1136       F  0.85175262  0.54440953  0.92133755    -0.19400
H1137       H  0.88272293  0.51848285  0.95467474     0.16300
F1138       F  0.99119915  0.60245058  0.89083804    -0.23100
H1139       H  0.95966761  0.62702663  0.85476111     0.18000
C1140       C  0.90638698  0.63931796  0.85711326     0.26000
C1141       C  0.89194033  0.65280293  0.83119408    -0.11600
C1142       C  0.86357361  0.63099911  0.80390806    -0.25700
C1143       C  0.84887668  0.59524903  0.80381946     0.37000
C1144       C  0.86292068  0.58160801  0.83029559    -0.27300
F1145       F  0.93427126  0.66115442  0.88257670    -0.19400
H1146       H  0.90335138  0.68043429  0.83155361     0.16300
F1147       F  0.82091120  0.57362905  0.77832560    -0.23100
H1148       H  0.85156519  0.55400920  0.82934017     0.18100
C1149       C  0.92560397  0.78290513  0.82625316    -0.27200
C1150       C  0.90685585  0.79385973  0.84731430     0.06400
C1151       C  0.87021856  0.77195384  0.84791131     0.26000
C1152       C  0.85275768  0.74026048  0.82600475    -0.11700
C1153       C  0.87164048  0.73031907  0.80285866    -0.25600
C1154       C  0.90809247  0.75130710  0.80401016     0.36800
C1155       C  0.92522806  0.82911078  0.86556568     0.06400
F1156       F  0.85144813  0.78162225  0.86899763    -0.19400
H1157       H  0.82460723  0.72408989  0.82557167     0.16300
F1158       F  0.92666985  0.74153742  0.78266215    -0.23100
H1159       H  0.95378873  0.79942962  0.82553469     0.18000
C1160       C  0.94785605  0.83944777  0.90231543     0.26000
C1161       C  0.96152173  0.87153904  0.92238690    -0.11600
C1162       C  0.95269426  0.89342859  0.90581287    -0.25700
C1163       C  0.93212075  0.88400975  0.86685346     0.37000
C1164       C  0.91854947  0.85216781  0.84708053    -0.27300
F1165       F  0.95501007  0.81768865  0.92045586    -0.19400
H1166       H  0.97733919  0.87836410  0.95231953     0.16300
F1167       F  0.92434035  0.90528036  0.84862222    -0.23100
H1168       H  0.90191834  0.84498942  0.81797549     0.18100
C1169       C  0.63635290  0.55684373  0.86852246    -0.27200
C1170       C  0.66891119  0.57580094  0.88859571     0.06400
C1171       C  0.67037241  0.57952804  0.93679867     0.26000
C1172       C  0.63985019  0.56482052  0.96437995    -0.11700
C1173       C  0.60700299  0.54574194  0.94473821    -0.25600
C1174       C  0.60554098  0.54155849  0.89630775     0.36800
C1175       C  0.70144940  0.59250161  0.85927783     0.06400
F1176       F  0.70146420  0.59819472  0.95711915    -0.19400
H1177       H  0.64209368  0.56847887  0.00145020     0.16300
F1178       F  0.57459218  0.52323173  0.87565815    -0.23100
H1179       H  0.63484811  0.55376215  0.83129522     0.18000
C1180       C  0.72447266  0.58345764  0.86620541     0.26000
C1181       C  0.75561163  0.60013546  0.83906082    -0.11600
C1182       C  0.76426331  0.62611227  0.80489412    -0.25700
C1183       C  0.74180575  0.63596525  0.79903399     0.37000
C1184       C  0.71041143  0.61889701  0.82560612    -0.27300
F1185       F  0.71662031  0.55825534  0.89887307    -0.19400
H1186       H  0.77281176  0.59248756  0.84424431     0.16300
F1187       F  0.75071692  0.66273359  0.76857213    -0.23100
H1188       H  0.69341161  0.62681765  0.82071255     0.18100
C1189       C  0.92732210  0.57684780  0.65744245    -0.27200
C1190       C  0.91064329  0.58712301  0.62955632     0.06400
C1191       C  0.90910969  0.58153758  0.58155815     0.26000
C1192       C  0.92412039  0.56612497  0.56210235    -0.11700
C1193       C  0.94161096  0.55672706  0.58986498    -0.25600
C1194       C  0.94281429  0.56205424  0.63796351     0.36800
C1195       C  0.89605097  0.60452176  0.65101519     0.06400
F1196       F  0.89486999  0.59275879  0.55302302    -0.19400
H1197       H  0.92360873  0.56318099  0.52486229     0.16300
F1198       F  0.95931152  0.55329734  0.66622466    -0.23100
H1199       H  0.92867939  0.58065009  0.69450754     0.18000
C1200       C  0.86154763  0.59283950  0.64447836     0.26000
C1201       C  0.84763966  0.60793816  0.66798071    -0.11600
C1202       C  0.86775488  0.63465642  0.69848824    -0.25700
C1203       C  0.90266051  0.64751904  0.70329043     0.37000
C1204       C  0.91651769  0.63236878  0.68009405    -0.27300
F1205       F  0.84073417  0.56570799  0.61728896    -0.19400
H1206       H  0.82070895  0.59785018  0.66379964     0.16300
F1207       F  0.92332748  0.67474007  0.73045060    -0.23100
H1208       H  0.94332190  0.64230339  0.68501283     0.18100
C1209       C  0.95419582  0.85930365  0.62276649    -0.27200
C1210       C  0.91994926  0.83010677  0.61669209     0.06400
C1211       C  0.90092003  0.83185084  0.58167301     0.26000
C1212       C  0.91599494  0.86215616  0.55301851    -0.11700
C1213       C  0.95032197  0.89150996  0.55874316    -0.25600
C1214       C  0.96932723  0.88984597  0.59415986     0.36800
C1215       C  0.90409922  0.79757786  0.64620803     0.06400
F1216       F  0.86807803  0.80376927  0.57418217    -0.19400
H1217       H  0.90075569  0.86251593  0.52595108     0.16300
F1218       F  0.00286193  0.91710976  0.60003109    -0.23100
H1219       H  0.96924491  0.85834439  0.64959282     0.18000
C1220       C  0.91923862  0.77947621  0.64723031     0.26000
C1221       C  0.90290944  0.74772533  0.67329430    -0.11600
C1222       C  0.87156713  0.73392710  0.69884308    -0.25700
C1223       C  0.85644657  0.75195185  0.69797902     0.37000
C1224       C  0.87261587  0.78353743  0.67179563    -0.27300
F1225       F  0.94914390  0.79193684  0.62182610    -0.19400
H1226       H  0.91471285  0.73392513  0.67371971     0.16300
F1227       F  0.82572103  0.73860296  0.72178565    -0.23100
H1228       H  0.86049763  0.79702724  0.67124601     0.18100
C1229       C  0.71030218  0.57653627  0.68063127    -0.27200
C1230       C  0.70692372  0.59706257  0.64838145     0.06400
C1231       C  0.73473205  0.63274794  0.64069405     0.26000
C1232       C  0.76481130  0.64755370  0.66564017    -0.11700
C1233       C  0.76752297  0.62725904  0.69896998    -0.25600
C1234       C  0.74039609  0.59141547  0.70559049     0.36800
C1235       C  0.67369498  0.58182612  0.62513753     0.06400
F1236       F  0.73274368  0.65339283  0.60930832    -0.19400
H1237       H  0.78561890  0.67517244  0.65997003     0.16300
F1238       F  0.74295525  0.57084297  0.73630545    -0.23100
H1239       H  0.68921322  0.54915336  0.68751096     0.18000
C1240       C  0.65653346  0.54944778  0.60407548     0.26000
C1241       C  0.62501028  0.53575497  0.58275023    -0.11600
C1242       C  0.61031752  0.55422751  0.58193885    -0.25700
C1243       C  0.62735731  0.58631741  0.60366176     0.37000
C1244       C  0.65846464  0.59970373  0.62511249    -0.27300
F1245       F  0.67058950  0.53147459  0.60315835    -0.19400
H1246       H  0.61244736  0.51108124  0.56619430     0.16300
F1247       F  0.61367334  0.60465185  0.60507284    -0.23100
H1248       H  0.67051488  0.62406523  0.64233804     0.18100
loop_ 
_geom_bond_atom_site_label_1 
_geom_bond_atom_site_label_2 
_geom_bond_distance 
_geom_bond_site_symmetry_2 
_ccdc_geom_bond_type 
C1            H2   1.111       .  S
C1            C7   1.537       .  S
C1            C6   1.536       .  S
C1            C5   1.535       .  S
C3            H4   1.112       .  S
C3            C9   1.529       .  S
C3            C8   1.532       .  S
C3           C10   1.536       .  S
C5            C8   1.374       .  D
C5          C266   1.484       .  S
C6            C9   1.370       .  D
C6          C286   1.475       .  S
C7           C10   1.376       .  D
C7          C297   1.480       .  S
C8          C206   1.472       .  S
C9          C217   1.475       .  S
C10         C246   1.483       .  S
C11          H12   1.110       .  S
C11          C17   1.534       .  S
C11          C16   1.541       .  S
C11          C15   1.537       .  S
C13          H14   1.111       .  S
C13          C19   1.536       .  S
C13          C18   1.537       .  S
C13          C20   1.540       .  S
C15          C18   1.372       .  D
C15         C157   1.478       .  S
C16          C19   1.380       .  D
C16         C146   1.490       .  S
C17          C20   1.378       .  D
C17         C186   1.494       .  S
C18          C97   1.489       .  S
C19          C86   1.487       .  S
C20         C126   1.481       .  S
O21         Ni27   1.919       .  S
O21          C42   1.273       .  A
O22        Ni669   1.913   1_455  S
O22          C31   1.269       .  A
O23         Ni27   1.901       .  S
O23        Ni357   1.906   1_556  S
O23        Ni663   1.925       .  S
O23         H358   0.973       .  S
C24          O41   1.283       .  A
C24          O33   1.277       .  A
C24         C117   1.487       .  S
O25         Ni44   1.921       .  S
O25          C31   1.268       .  A
O26         Ni44   1.902       .  S
O26          C28   1.268   1_554  A
Ni27         O32   1.904   1_556  S
Ni27        O342   1.941       .  S
C28          O38   1.274       .  A
C28         C237   1.489       .  S
O29         Ni45   1.905   1_556  S
O29          C35   1.270       .  A
O30        Ni339   1.941   1_545  S
O30          C35   1.276       .  A
C31          C77   1.478       .  S
O32          C34   1.267       .  A
O33        Ni356   1.909       .  S
C34         O352   1.279       .  A
C34         C106   1.480       .  S
C35         C197   1.473       .  S
H36         O973   0.961       .  S
O37         Ni44   1.892       .  S
O37        Ni669   1.904   1_455  S
O37        Ni351   1.898   1_544  S
O37         H972   0.961   1_445  S
O38        Ni351   1.937   1_545  S
Ni39         O41   1.942   1_556  S
Ni39        O350   1.937       .  S
Ni39        O667   1.911   1_455  S
Ni39        O647   1.925   1_455  S
Ni39        O349   1.898   1_556  S
O40         Ni45   1.959       .  S
O40         C346   1.279   1_545  A
C42          O43   1.272       .  A
C42         C226   1.474       .  S
O43        Ni663   1.911       .  S
Ni44        O345   1.909   1_545  S
Ni45        O646   1.913       .  S
Ni45        O335   1.906   1_544  S
Ni45        O661   1.904       .  S
H46         O335   0.973   1_545  S
O47         Ni53   1.915       .  S
O47          C68   1.269       .  A
O48        Ni383   1.921       .  S
O48          C57   1.274       .  A
O49         Ni53   1.882       .  S
O49        Ni695   1.894   1_455  S
O49        Ni377   1.918   1_545  S
O49         H696   0.966   1_445  S
C50          O67   1.278       .  A
C50          O59   1.278       .  A
C50         C177   1.472       .  S
O51         Ni70   1.919       .  S
O51          C57   1.270       .  A
O52         Ni70   1.903       .  S
O52          C54   1.269       .  A
Ni53         O58   1.901       .  S
Ni53        O680   1.916   1_455  S
C54          O64   1.274       .  A
C54         C277   1.484       .  S
O55         Ni71   1.946       .  S
O55          C61   1.286       .  A
O56        Ni677   1.916       .  S
O56          C61   1.278       .  A
C57         C166   1.481       .  S
O58          C60   1.267       .  A
O59        Ni694   1.921   1_455  S
C60         O690   1.274       .  A
C60         C137   1.482       .  S
C61         C257   1.486       .  S
H62         O999   0.967   1_445  S
O63         Ni70   1.887       .  S
O63        Ni383   1.922       .  S
O63        Ni689   1.901       .  S
O63         H998   0.967       .  S
O64        Ni689   1.934       .  S
Ni65         O67   1.925       .  S
Ni65        O688   1.934   1_455  S
Ni65        O381   1.918       .  S
Ni65        O361   1.918       .  S
Ni65        O687   1.901   1_455  S
O66         Ni71   1.937       .  S
O66         C684   1.274       .  A
C68          O69   1.272       .  A
C68         C306   1.479       .  S
O69        Ni377   1.918   1_545  S
Ni70        O683   1.921       .  S
Ni71        O360   1.921   1_545  S
Ni71        O673   1.894       .  S
Ni71        O375   1.922   1_545  S
H72         O673   0.966   1_565  S
C73          C74   1.399       .  A
C73          C78   1.393       .  A
C73          H83   1.084       .  S
C74          C79   1.474       .  S
C74          C75   1.406       .  A
C75          C76   1.400       .  A
C75          F80   1.357       .  S
C76          C77   1.405       .  A
C76          H81   1.083       .  S
C77          C78   1.410       .  A
C78          F82   1.358       .  S
C79          C84   1.405       .  A
C79          C88   1.399       .  A
C84          C85   1.396       .  A
C84          F89   1.357       .  S
C85          C86   1.404       .  A
C85          H90   1.083       .  S
C86          C87   1.408       .  A
C87          C88   1.397       .  A
C87          F91   1.351       .  S
C88          H92   1.083       .  S
C93          C94   1.407       .  A
C93          C98   1.398       .  A
C93         H103   1.082       .  S
C94          C99   1.497       .  S
C94          C95   1.413       .  A
C95          C96   1.403       .  A
C95         F100   1.357       .  S
C96          C97   1.403       .  A
C96         H101   1.083       .  S
C97          C98   1.404       .  A
C98         F102   1.355       .  S
C99         C104   1.411       .  A
C99         C108   1.409       .  A
C104        C105   1.400       .  A
C104        F109   1.357       .  S
C105        C106   1.403       .  A
C105        H110   1.084       .  S
C106        C107   1.406       .  A
C107        C108   1.402       .  A
C107        F111   1.358       .  S
C108        H112   1.083       .  S
C113        C114   1.406       .  A
C113        C118   1.403       .  A
C113        H123   1.083       .  S
C114        C119   1.483       .  S
C114        C115   1.403       .  A
C115        C116   1.395       .  A
C115        F120   1.358       .  S
C116        C117   1.408       .  A
C116        H121   1.083       .  S
C117        C118   1.410       .  A
C118        F122   1.357       .  S
C119        C124   1.405       .  A
C119        C128   1.407       .  A
C124        C125   1.398       .  A
C124        F129   1.357       .  S
C125        C126   1.402       .  A
C125        H130   1.080       .  S
C126        C127   1.402       .  A
C127        C128   1.399       .  A
C127        F131   1.357       .  S
C128        H132   1.083       .  S
C133        C134   1.401       .  A
C133        C138   1.394       .  A
C133        H143   1.084       .  S
C134        C139   1.483       .  S
C134        C135   1.409       .  A
C135        C136   1.404       .  A
C135        F140   1.357       .  S
C136        C137   1.406       .  A
C136        H141   1.083       .  S
C137        C138   1.410       .  A
C138        F142   1.358       .  S
C139        C144   1.405       .  A
C139        C148   1.405       .  A
C144        C145   1.399       .  A
C144        F149   1.357       .  S
C145        C146   1.407       .  A
C145        H150   1.083       .  S
C146        C147   1.406       .  A
C147        C148   1.398       .  A
C147        F151   1.357       .  S
C148        H152   1.083       .  S
C153        C154   1.405       .  A
C153        C158   1.397       .  A
C153        H163   1.083       .  S
C154        C159   1.489       .  S
C154        C155   1.413       .  A
C155        C156   1.398       .  A
C155        F160   1.358       .  S
C156        C157   1.399       .  A
C156        H161   1.084       .  S
C157        C158   1.403       .  A
C158        F162   1.356       .  S
C159        C164   1.412       .  A
C159        C168   1.402       .  A
C164        C165   1.403       .  A
C164        F169   1.357       .  S
C165        C166   1.404       .  A
C165        H170   1.083       .  S
C166        C167   1.411       .  A
C167        C168   1.393       .  A
C167        F171   1.358       .  S
C168        H172   1.083       .  S
C173        C174   1.405       .  A
C173        C178   1.396       .  A
C173        H183   1.084       .  S
C174        C179   1.481       .  S
C174        C175   1.406       .  A
C175        C176   1.401       .  A
C175        F180   1.358       .  S
C176        C177   1.405       .  A
C176        H181   1.084       .  S
C177        C178   1.403       .  A
C178        F182   1.357       .  S
C179        C184   1.405       .  A
C179        C188   1.403       .  A
C184        C185   1.395       .  A
C184        F189   1.358       .  S
C185        C186   1.404       .  A
C185        H190   1.080       .  S
C186        C187   1.409       .  A
C187        C188   1.400       .  A
C187        F191   1.353       .  S
C188        H192   1.083       .  S
C193        C194   1.405       .  A
C193        C198   1.399       .  A
C193        H203   1.083       .  S
C194        C199   1.480       .  S
C194        C195   1.405       .  A
C195        C196   1.396       .  A
C195        F200   1.358       .  S
C196        C197   1.404       .  A
C196        H201   1.084       .  S
C197        C198   1.405       .  A
C198        F202   1.357       .  S
C199        C204   1.406       .  A
C199        C208   1.406       .  A
C204        C205   1.397       .  A
C204        F209   1.357       .  S
C205        C206   1.400       .  A
C205        H210   1.083       .  S
C206        C207   1.401       .  A
C207        C208   1.396       .  A
C207        F211   1.358       .  S
C208        H212   1.083       .  S
C213        C214   1.402       .  A
C213        C218   1.399       .  A
C213        H223   1.083       .  S
C214        C219   1.477       .  S
C214        C215   1.408       .  A
C215        C216   1.397       .  A
C215        F220   1.358       .  S
C216        C217   1.399       .  A
C216        H221   1.084       .  S
C217        C218   1.404       .  A
C218        F222   1.357       .  S
C219        C224   1.407       .  A
C219        C228   1.400       .  A
C224        C225   1.404       .  A
C224        F229   1.357       .  S
C225        C226   1.404       .  A
C225        H230   1.083       .  S
C226        C227   1.408       .  A
C227        C228   1.391       .  A
C227        F231   1.358       .  S
C228        H232   1.084       .  S
C233        C234   1.405       .  A
C233        C238   1.404       .  A
C233        H243   1.083       .  S
C234        C239   1.480       .  S
C234        C235   1.401       .  A
C235        C236   1.394       .  A
C235        F240   1.358       .  S
C236        C237   1.410       .  A
C236        H241   1.083   1_556  S
C237        C238   1.410       .  A
C238        F242   1.357       .  S
C239        C244   1.407       .  A
C239        C248   1.403       .  A
C244        C245   1.400       .  A
C244        F249   1.357       .  S
C245        C246   1.402       .  A
C245        H250   1.084       .  S
C246        C247   1.406       .  A
C247        C248   1.399       .  A
C247        F251   1.357       .  S
C248        H252   1.083       .  S
C253        C254   1.405       .  A
C253        C258   1.399       .  A
C253        H263   1.083       .  S
C254        C259   1.490       .  S
C254        C255   1.409       .  A
C255        C256   1.404       .  A
C255        F260   1.357       .  S
C256        C257   1.406       .  A
C256        H261   1.083       .  S
C257        C258   1.410       .  A
C258        F262   1.358       .  S
C259        C264   1.410       .  A
C259        C268   1.407       .  A
C264        C265   1.403       .  A
C264        F269   1.357       .  S
C265        C266   1.402       .  A
C265        H270   1.083       .  S
C266        C267   1.404       .  A
C267        C268   1.398       .  A
C267        F271   1.357       .  S
C268        H272   1.083       .  S
C273        C274   1.405       .  A
C273        C278   1.402       .  A
C273        H283   1.083       .  S
C274        C279   1.480       .  S
C274        C275   1.403       .  A
C275        C276   1.396       .  A
C275        F280   1.358       .  S
C276        C277   1.407       .  A
C276        H281   1.083       .  S
C277        C278   1.409       .  A
C278        F282   1.357       .  S
C279        C284   1.407       .  A
C279        C288   1.404       .  A
C284        C285   1.400       .  A
C284        F289   1.357       .  S
C285        C286   1.401       .  A
C285        H290   1.083       .  S
C286        C287   1.403       .  A
C287        C288   1.397       .  A
C287        F291   1.358       .  S
C288        H292   1.083       .  S
C293        C294   1.404       .  A
C293        C298   1.398       .  A
C293        H303   1.083       .  S
C294        C299   1.484       .  S
C294        C295   1.410       .  A
C295        C296   1.397       .  A
C295        F300   1.358       .  S
C296        C297   1.400       .  A
C296        H301   1.084       .  S
C297        C298   1.406       .  A
C298        F302   1.357       .  S
C299        C304   1.410       .  A
C299        C308   1.401       .  A
C304        C305   1.403       .  A
C304        F309   1.357       .  S
C305        C306   1.405       .  A
C305        H310   1.083       .  S
C306        C307   1.409       .  A
C307        C308   1.391       .  A
C307        F311   1.358       .  S
C308        H312   1.083       .  S
C313        H314   1.111       .  S
C313        C319   1.537       .  S
C313        C318   1.536       .  S
C313        C317   1.535       .  S
C315        H316   1.112       .  S
C315        C321   1.529       .  S
C315        C320   1.532       .  S
C315        C322   1.536       .  S
C317        C320   1.374       .  D
C317        C578   1.484       .  S
C318        C321   1.370       .  D
C318        C598   1.475       .  S
C319        C322   1.376       .  D
C319        C609   1.480       .  S
C320        C518   1.472       .  S
C321        C529   1.475       .  S
C322        C558   1.483       .  S
C323        H324   1.110       .  S
C323        C329   1.534       .  S
C323        C328   1.541       .  S
C323        C327   1.537       .  S
C325        H326   1.111       .  S
C325        C331   1.536       .  S
C325        C330   1.537       .  S
C325        C332   1.540       .  S
C327        C330   1.372       .  D
C327        C469   1.478       .  S
C328        C331   1.380       .  D
C328        C458   1.490       .  S
C329        C332   1.378       .  D
C329        C498   1.494       .  S
C330        C409   1.489       .  S
C331        C398   1.487       .  S
C332        C438   1.481       .  S
O333       Ni339   1.919       .  S
O333        C354   1.273       .  A
O334       Ni981   1.913   1_455  S
O334        C343   1.269       .  A
O335       Ni339   1.901       .  S
O335       Ni975   1.925       .  S
C336        O353   1.283       .  A
C336        O345   1.277       .  A
C336        C429   1.487       .  S
O337       Ni356   1.921       .  S
O337        C343   1.268       .  A
O338       Ni356   1.902       .  S
O338        C340   1.268   1_554  A
Ni339       O344   1.904   1_556  S
C340        O350   1.274       .  A
C340        C549   1.489       .  S
O341       Ni357   1.905   1_556  S
O341        C347   1.270       .  A
O342        C347   1.276       .  A
C343        C389   1.478       .  S
O344        C346   1.267       .  A
C346        C418   1.480       .  S
C347        C509   1.473       .  S
H348        O661   0.961   1_565  S
O349       Ni981   1.904   1_455  S
O349       Ni356   1.892       .  S
O349        H660   0.961   1_455  S
Ni351       O979   1.911   1_455  S
Ni351       O353   1.942   1_556  S
Ni351       O959   1.925   1_455  S
O352       Ni357   1.959       .  S
C354        O355   1.272       .  A
C354        C538   1.474       .  S
O355       Ni975   1.911       .  S
Ni357       O958   1.913       .  S
Ni357       O973   1.904       .  S
O359       Ni365   1.915       .  S
O359        C380   1.269       .  A
O360        C369   1.274       .  A
O361       Ni365   1.882       .  S
O361      Ni1007   1.894   1_455  S
O361       H1008   0.966   1_455  S
C362        O379   1.278       .  A
C362        O371   1.278       .  A
C362        C489   1.472       .  S
O363       Ni382   1.919       .  S
O363        C369   1.270       .  A
O364       Ni382   1.903       .  S
O364        C366   1.269       .  A
Ni365       O992   1.916   1_455  S
Ni365       O370   1.901       .  S
C366        O376   1.274       .  A
C366        C589   1.484       .  S
O367       Ni383   1.946       .  S
O367        C373   1.286       .  A
O368       Ni989   1.916       .  S
O368        C373   1.278       .  A
C369        C478   1.481       .  S
O370        C372   1.267       .  A
O371      Ni1006   1.921   1_455  S
C372       O1002   1.274       .  A
C372        C449   1.482       .  S
C373        C569   1.486       .  S
H374        O687   0.967   1_455  S
O375      Ni1001   1.901       .  S
O375       Ni382   1.887       .  S
O375        H686   0.967   1_565  S
O376      Ni1001   1.934       .  S
Ni377      O1000   1.934   1_455  S
Ni377       O379   1.925       .  S
Ni377       O999   1.901   1_455  S
O378       Ni383   1.937       .  S
O378        C996   1.274       .  A
C380        O381   1.272       .  A
C380        C618   1.479       .  S
Ni382       O995   1.921       .  S
Ni383       O985   1.894       .  S
H384        O985   0.966       .  S
C385        C386   1.399       .  A
C385        C390   1.393       .  A
C385        H395   1.084       .  S
C386        C391   1.474       .  S
C386        C387   1.406       .  A
C387        C388   1.400       .  A
C387        F392   1.357       .  S
C388        C389   1.405       .  A
C388        H393   1.083       .  S
C389        C390   1.410       .  A
C390        F394   1.358       .  S
C391        C396   1.405       .  A
C391        C400   1.399       .  A
C396        C397   1.396       .  A
C396        F401   1.357       .  S
C397        C398   1.404       .  A
C397        H402   1.083       .  S
C398        C399   1.408       .  A
C399        C400   1.397       .  A
C399        F403   1.351       .  S
C400        H404   1.083       .  S
C405        C406   1.407       .  A
C405        C410   1.398       .  A
C405        H415   1.082       .  S
C406        C411   1.497       .  S
C406        C407   1.413       .  A
C407        C408   1.403       .  A
C407        F412   1.357       .  S
C408        C409   1.403       .  A
C408        H413   1.083       .  S
C409        C410   1.404       .  A
C410        F414   1.355       .  S
C411        C416   1.411       .  A
C411        C420   1.409       .  A
C416        C417   1.400       .  A
C416        F421   1.357       .  S
C417        C418   1.403       .  A
C417        H422   1.084   1_565  S
C418        C419   1.406       .  A
C419        C420   1.402       .  A
C419        F423   1.358       .  S
C420        H424   1.083       .  S
C425        C426   1.406       .  A
C425        C430   1.403       .  A
C425        H435   1.083       .  S
C426        C431   1.483       .  S
C426        C427   1.403       .  A
C427        C428   1.395       .  A
C427        F432   1.358       .  S
C428        C429   1.408       .  A
C428        H433   1.083       .  S
C429        C430   1.410       .  A
C430        F434   1.357       .  S
C431        C436   1.405       .  A
C431        C440   1.407       .  A
C436        C437   1.398       .  A
C436        F441   1.357       .  S
C437        C438   1.402       .  A
C437        H442   1.080       .  S
C438        C439   1.402       .  A
C439        C440   1.399       .  A
C439        F443   1.357       .  S
C440        H444   1.083       .  S
C445        C446   1.401       .  A
C445        C450   1.394       .  A
C445        H455   1.084       .  S
C446        C451   1.483       .  S
C446        C447   1.409       .  A
C447        C448   1.404       .  A
C447        F452   1.357       .  S
C448        C449   1.406       .  A
C448        H453   1.083       .  S
C449        C450   1.410       .  A
C450        F454   1.358       .  S
C451        C456   1.405       .  A
C451        C460   1.405       .  A
C456        C457   1.399       .  A
C456        F461   1.357       .  S
C457        C458   1.407       .  A
C457        H462   1.083       .  S
C458        C459   1.406       .  A
C459        C460   1.398       .  A
C459        F463   1.357       .  S
C460        H464   1.083       .  S
C465        C466   1.405       .  A
C465        C470   1.397       .  A
C465        H475   1.083       .  S
C466        C471   1.489       .  S
C466        C467   1.413       .  A
C467        C468   1.398       .  A
C467        F472   1.358       .  S
C468        C469   1.399       .  A
C468        H473   1.084       .  S
C469        C470   1.403       .  A
C470        F474   1.356       .  S
C471        C476   1.412       .  A
C471        C480   1.402       .  A
C476        C477   1.403       .  A
C476        F481   1.357       .  S
C477        C478   1.404       .  A
C477        H482   1.083   1_565  S
C478        C479   1.411       .  A
C479        C480   1.393       .  A
C479        F483   1.358       .  S
C480        H484   1.083       .  S
C485        C486   1.405       .  A
C485        C490   1.396       .  A
C485        H495   1.084       .  S
C486        C491   1.481       .  S
C486        C487   1.406       .  A
C487        C488   1.401       .  A
C487        F492   1.358       .  S
C488        C489   1.405       .  A
C488        H493   1.084       .  S
C489        C490   1.403       .  A
C490        F494   1.357       .  S
C491        C496   1.405       .  A
C491        C500   1.403       .  A
C496        C497   1.395       .  A
C496        F501   1.358       .  S
C497        C498   1.404       .  A
C497        H502   1.080       .  S
C498        C499   1.409       .  A
C499        C500   1.400       .  A
C499        F503   1.353       .  S
C500        H504   1.083       .  S
C505        C506   1.405       .  A
C505        C510   1.399       .  A
C505        H515   1.083       .  S
C506        C511   1.480       .  S
C506        C507   1.405       .  A
C507        C508   1.396       .  A
C507        F512   1.358       .  S
C508        C509   1.404       .  A
C508        H513   1.084       .  S
C509        C510   1.405       .  A
C510        F514   1.357       .  S
C511        C516   1.406       .  A
C511        C520   1.406       .  A
C516        C517   1.397       .  A
C516        F521   1.357       .  S
C517        C518   1.400       .  A
C517        H522   1.083       .  S
C518        C519   1.401       .  A
C519        C520   1.396       .  A
C519        F523   1.358       .  S
C520        H524   1.083       .  S
C525        C526   1.402       .  A
C525        C530   1.399       .  A
C525        H535   1.083       .  S
C526        C531   1.477       .  S
C526        C527   1.408       .  A
C527        C528   1.397       .  A
C527        F532   1.358       .  S
C528        C529   1.399       .  A
C528        H533   1.084       .  S
C529        C530   1.404       .  A
C530        F534   1.357       .  S
C531        C536   1.407       .  A
C531        C540   1.400       .  A
C536        C537   1.404       .  A
C536        F541   1.357       .  S
C537        C538   1.404       .  A
C537        H542   1.083       .  S
C538        C539   1.408       .  A
C539        C540   1.391       .  A
C539        F543   1.358       .  S
C540        H544   1.084       .  S
C545        C546   1.405       .  A
C545        C550   1.404       .  A
C545        H555   1.083       .  S
C546        C551   1.480       .  S
C546        C547   1.401       .  A
C547        C548   1.394       .  A
C547        F552   1.358       .  S
C548        C549   1.410       .  A
C548        H553   1.083   1_556  S
C549        C550   1.410       .  A
C550        F554   1.357       .  S
C551        C556   1.407       .  A
C551        C560   1.403       .  A
C556        C557   1.400       .  A
C556        F561   1.357       .  S
C557        C558   1.402       .  A
C557        H562   1.084       .  S
C558        C559   1.406       .  A
C559        C560   1.399       .  A
C559        F563   1.357       .  S
C560        H564   1.083       .  S
C565        C566   1.405       .  A
C565        C570   1.399       .  A
C565        H575   1.083       .  S
C566        C571   1.490       .  S
C566        C567   1.409       .  A
C567        C568   1.404       .  A
C567        F572   1.357       .  S
C568        C569   1.406       .  A
C568        H573   1.083       .  S
C569        C570   1.410       .  A
C570        F574   1.358       .  S
C571        C576   1.410       .  A
C571        C580   1.407       .  A
C576        C577   1.403       .  A
C576        F581   1.357       .  S
C577        C578   1.402       .  A
C577        H582   1.083       .  S
C578        C579   1.404       .  A
C579        C580   1.398       .  A
C579        F583   1.357       .  S
C580        H584   1.083       .  S
C585        C586   1.405       .  A
C585        C590   1.402       .  A
C585        H595   1.083       .  S
C586        C591   1.480       .  S
C586        C587   1.403       .  A
C587        C588   1.396       .  A
C587        F592   1.358       .  S
C588        C589   1.408       .  A
C588        H593   1.083       .  S
C589        C590   1.409       .  A
C590        F594   1.357       .  S
C591        C596   1.407       .  A
C591        C600   1.404       .  A
C596        C597   1.400       .  A
C596        F601   1.357       .  S
C597        C598   1.401       .  A
C597        H602   1.083       .  S
C598        C599   1.403       .  A
C599        C600   1.397       .  A
C599        F603   1.358       .  S
C600        H604   1.083       .  S
C605        C606   1.404       .  A
C605        C610   1.398       .  A
C605        H615   1.083       .  S
C606        C611   1.484       .  S
C606        C607   1.410       .  A
C607        C608   1.397       .  A
C607        F612   1.358       .  S
C608        C609   1.400       .  A
C608        H613   1.084       .  S
C609        C610   1.406       .  A
C610        F614   1.357       .  S
C611        C616   1.410       .  A
C611        C620   1.401       .  A
C616        C617   1.403       .  A
C616        F621   1.357       .  S
C617        C618   1.405       .  A
C617        H622   1.083       .  S
C618        C619   1.409       .  A
C619        C620   1.391       .  A
C619        F623   1.358       .  S
C620        H624   1.083       .  S
C625        H626   1.111       .  S
C625        C631   1.537       .  S
C625        C630   1.536       .  S
C625        C629   1.535       .  S
C627        H628   1.112       .  S
C627        C633   1.529       .  S
C627        C632   1.532       .  S
C627        C634   1.536       .  S
C629        C632   1.374       .  D
C629        C890   1.484       .  S
C630        C633   1.370       .  D
C630        C910   1.475       .  S
C631        C634   1.376       .  D
C631        C921   1.480       .  S
C632        C830   1.472       .  S
C633        C841   1.475       .  S
C634        C870   1.483       .  S
C635        H636   1.110       .  S
C635        C641   1.534       .  S
C635        C640   1.541       .  S
C635        C639   1.537       .  S
C637        H638   1.111       .  S
C637        C643   1.536       .  S
C637        C642   1.537       .  S
C637        C644   1.540       .  S
C639        C642   1.372       .  D
C639        C781   1.478       .  S
C640        C643   1.380       .  D
C640        C770   1.490       .  S
C641        C644   1.378       .  D
C641        C810   1.494       .  S
C642        C721   1.489       .  S
C643        C710   1.487       .  S
C644        C750   1.481       .  S
O645       Ni651   1.919       .  S
O645        C666   1.273       .  A
O646        C655   1.269       .  A
O647       Ni651   1.901       .  S
O647       Ni981   1.906   1_556  S
O647        H982   0.973       .  S
C648        O665   1.283       .  A
C648        O657   1.277       .  A
C648        C741   1.487       .  S
O649       Ni668   1.921       .  S
O649        C655   1.268       .  A
O650       Ni668   1.902       .  S
O650        C652   1.268   1_554  A
Ni651       O966   1.941       .  S
Ni651       O656   1.904   1_556  S
C652        O662   1.274       .  A
C652        C861   1.489       .  S
O653       Ni669   1.905   1_556  S
O653        C659   1.270       .  A
O654       Ni963   1.941   1_545  S
O654        C659   1.276       .  A
C655        C701   1.478       .  S
O656        C658   1.267       .  A
O657       Ni980   1.909       .  S
C658        O976   1.279       .  A
C658        C730   1.480       .  S
C659        C821   1.473       .  S
O661       Ni975   1.898   1_544  S
O661       Ni668   1.892       .  S
O662       Ni975   1.937   1_545  S
Ni663       O974   1.937       .  S
Ni663       O665   1.942   1_556  S
Ni663       O973   1.898   1_556  S
O664       Ni669   1.959       .  S
O664        C970   1.279   1_545  A
C666        O667   1.272       .  A
C666        C850   1.474       .  S
Ni668       O969   1.909   1_545  S
Ni669       O959   1.906   1_544  S
H670        O959   0.973   1_545  S
O671       Ni677   1.915       .  S
O671        C692   1.269       .  A
O672      Ni1007   1.921       .  S
O672        C681   1.274       .  A
O673       Ni677   1.882       .  S
O673      Ni1001   1.918   1_545  S
C674        O691   1.278       .  A
C674        O683   1.278       .  A
C674        C801   1.472       .  S
O675       Ni694   1.919       .  S
O675        C681   1.270       .  A
O676       Ni694   1.903       .  S
O676        C678   1.269       .  A
Ni677       O682   1.901       .  S
C678        O688   1.274       .  A
C678        C901   1.484       .  S
O679       Ni695   1.946       .  S
O679        C685   1.286       .  A
O680        C685   1.278       .  A
C681        C790   1.481       .  S
O682        C684   1.267       .  A
C684        C761   1.482       .  S
C685        C881   1.486       .  S
O687      Ni1007   1.922       .  S
O687       Ni694   1.887       .  S
Ni689      O1005   1.918       .  S
Ni689       O691   1.925       .  S
Ni689       O985   1.918       .  S
O690       Ni695   1.937   1_455  S
C692        O693   1.272       .  A
C692        C930   1.479       .  S
O693      Ni1001   1.918   1_545  S
Ni695       O984   1.921   1_545  S
Ni695       O999   1.922   1_545  S
C697        C698   1.399       .  A
C697        C702   1.393       .  A
C697        H707   1.084       .  S
C698        C703   1.474       .  S
C698        C699   1.406       .  A
C699        C700   1.400       .  A
C699        F704   1.357       .  S
C700        C701   1.405       .  A
C700        H705   1.083       .  S
C701        C702   1.410       .  A
C702        F706   1.358       .  S
C703        C708   1.405       .  A
C703        C712   1.399       .  A
C708        C709   1.396       .  A
C708        F713   1.357       .  S
C709        C710   1.404       .  A
C709        H714   1.083       .  S
C710        C711   1.408       .  A
C711        C712   1.397       .  A
C711        F715   1.351       .  S
C712        H716   1.083       .  S
C717        C718   1.407       .  A
C717        C722   1.398       .  A
C717        H727   1.082       .  S
C718        C723   1.497       .  S
C718        C719   1.413       .  A
C719        C720   1.403       .  A
C719        F724   1.357       .  S
C720        C721   1.403       .  A
C720        H725   1.083       .  S
C721        C722   1.404       .  A
C722        F726   1.355       .  S
C723        C728   1.411       .  A
C723        C732   1.409       .  A
C728        C729   1.400       .  A
C728        F733   1.357       .  S
C729        C730   1.403       .  A
C729        H734   1.084       .  S
C730        C731   1.406       .  A
C731        C732   1.402       .  A
C731        F735   1.358       .  S
C732        H736   1.083       .  S
C737        C738   1.406       .  A
C737        C742   1.403       .  A
C737        H747   1.083       .  S
C738        C743   1.483       .  S
C738        C739   1.403       .  A
C739        C740   1.395       .  A
C739        F744   1.358       .  S
C740        C741   1.408       .  A
C740        H745   1.083       .  S
C741        C742   1.410       .  A
C742        F746   1.357       .  S
C743        C748   1.405       .  A
C743        C752   1.407       .  A
C748        C749   1.398       .  A
C748        F753   1.357       .  S
C749        C750   1.402       .  A
C749        H754   1.080       .  S
C750        C751   1.402       .  A
C751        C752   1.399       .  A
C751        F755   1.357       .  S
C752        H756   1.083       .  S
C757        C758   1.401       .  A
C757        C762   1.394       .  A
C757        H767   1.084       .  S
C758        C763   1.483       .  S
C758        C759   1.409       .  A
C759        C760   1.404       .  A
C759        F764   1.357       .  S
C760        C761   1.406       .  A
C760        H765   1.083       .  S
C761        C762   1.410       .  A
C762        F766   1.358       .  S
C763        C768   1.405       .  A
C763        C772   1.405       .  A
C768        C769   1.399       .  A
C768        F773   1.357       .  S
C769        C770   1.407       .  A
C769        H774   1.083       .  S
C770        C771   1.406       .  A
C771        C772   1.398       .  A
C771        F775   1.357       .  S
C772        H776   1.083       .  S
C777        C778   1.405       .  A
C777        C782   1.397       .  A
C777        H787   1.083       .  S
C778        C783   1.489       .  S
C778        C779   1.413       .  A
C779        C780   1.398       .  A
C779        F784   1.358       .  S
C780        C781   1.399       .  A
C780        H785   1.084       .  S
C781        C782   1.403       .  A
C782        F786   1.356       .  S
C783        C788   1.412       .  A
C783        C792   1.402       .  A
C788        C789   1.403       .  A
C788        F793   1.357       .  S
C789        C790   1.404       .  A
C789        H794   1.083       .  S
C790        C791   1.411       .  A
C791        C792   1.393       .  A
C791        F795   1.358       .  S
C792        H796   1.083       .  S
C797        C798   1.405       .  A
C797        C802   1.396       .  A
C797        H807   1.084       .  S
C798        C803   1.481       .  S
C798        C799   1.406       .  A
C799        C800   1.401       .  A
C799        F804   1.358       .  S
C800        C801   1.405       .  A
C800        H805   1.084       .  S
C801        C802   1.403       .  A
C802        F806   1.357       .  S
C803        C808   1.405       .  A
C803        C812   1.403       .  A
C808        C809   1.395       .  A
C808        F813   1.358       .  S
C809        C810   1.404       .  A
C809        H814   1.080       .  S
C810        C811   1.409       .  A
C811        C812   1.400       .  A
C811        F815   1.353       .  S
C812        H816   1.083       .  S
C817        C818   1.405       .  A
C817        C822   1.399       .  A
C817        H827   1.083       .  S
C818        C823   1.480       .  S
C818        C819   1.405       .  A
C819        C820   1.396       .  A
C819        F824   1.358       .  S
C820        C821   1.404       .  A
C820        H825   1.084       .  S
C821        C822   1.405       .  A
C822        F826   1.357       .  S
C823        C828   1.406       .  A
C823        C832   1.406       .  A
C828        C829   1.397       .  A
C828        F833   1.357       .  S
C829        C830   1.400       .  A
C829        H834   1.083       .  S
C830        C831   1.401       .  A
C831        C832   1.396       .  A
C831        F835   1.358       .  S
C832        H836   1.083       .  S
C837        C838   1.402       .  A
C837        C842   1.399       .  A
C837        H847   1.083       .  S
C838        C843   1.477       .  S
C838        C839   1.408       .  A
C839        C840   1.397       .  A
C839        F844   1.358       .  S
C840        C841   1.399       .  A
C840        H845   1.084       .  S
C841        C842   1.404       .  A
C842        F846   1.357       .  S
C843        C848   1.407       .  A
C843        C852   1.400       .  A
C848        C849   1.404       .  A
C848        F853   1.357       .  S
C849        C850   1.404       .  A
C849        H854   1.083       .  S
C850        C851   1.408       .  A
C851        C852   1.391       .  A
C851        F855   1.358       .  S
C852        H856   1.084       .  S
C857        C858   1.405       .  A
C857        C862   1.404       .  A
C857        H867   1.083       .  S
C858        C863   1.480       .  S
C858        C859   1.401       .  A
C859        C860   1.394       .  A
C859        F864   1.358       .  S
C860        C861   1.410       .  A
C860        H865   1.083   1_556  S
C861        C862   1.410       .  A
C862        F866   1.357       .  S
C863        C868   1.407       .  A
C863        C872   1.403       .  A
C868        C869   1.400       .  A
C868        F873   1.357       .  S
C869        C870   1.402       .  A
C869        H874   1.084       .  S
C870        C871   1.406       .  A
C871        C872   1.399       .  A
C871        F875   1.357       .  S
C872        H876   1.083       .  S
C877        C878   1.405       .  A
C877        C882   1.399       .  A
C877        H887   1.083       .  S
C878        C883   1.490       .  S
C878        C879   1.409       .  A
C879        C880   1.404       .  A
C879        F884   1.357       .  S
C880        C881   1.406       .  A
C880        H885   1.083       .  S
C881        C882   1.410       .  A
C882        F886   1.358       .  S
C883        C888   1.410       .  A
C883        C892   1.407       .  A
C888        C889   1.403       .  A
C888        F893   1.357       .  S
C889        C890   1.402       .  A
C889        H894   1.083       .  S
C890        C891   1.404       .  A
C891        C892   1.398       .  A
C891        F895   1.357       .  S
C892        H896   1.083       .  S
C897        C898   1.405       .  A
C897        C902   1.402       .  A
C897        H907   1.083       .  S
C898        C903   1.480       .  S
C898        C899   1.403       .  A
C899        C900   1.396       .  A
C899        F904   1.358       .  S
C900        C901   1.408       .  A
C900        H905   1.083       .  S
C901        C902   1.409       .  A
C902        F906   1.357   1_655  S
C903        C908   1.407       .  A
C903        C912   1.404       .  A
C908        C909   1.400       .  A
C908        F913   1.357       .  S
C909        C910   1.401       .  A
C909        H914   1.083       .  S
C910        C911   1.403       .  A
C911        C912   1.397       .  A
C911        F915   1.358       .  S
C912        H916   1.083       .  S
C917        C918   1.404       .  A
C917        C922   1.398       .  A
C917        H927   1.083       .  S
C918        C923   1.484       .  S
C918        C919   1.410       .  A
C919        C920   1.397       .  A
C919        F924   1.358       .  S
C920        C921   1.400       .  A
C920        H925   1.084       .  S
C921        C922   1.406       .  A
C922        F926   1.357       .  S
C923        C928   1.410       .  A
C923        C932   1.401       .  A
C928        C929   1.403       .  A
C928        F933   1.357       .  S
C929        C930   1.405       .  A
C929        H934   1.083       .  S
C930        C931   1.409       .  A
C931        C932   1.391       .  A
C931        F935   1.358       .  S
C932        H936   1.083       .  S
C937        H938   1.111       .  S
C937        C943   1.537       .  S
C937        C942   1.536       .  S
C937        C941   1.535       .  S
C939        H940   1.112       .  S
C939        C945   1.529       .  S
C939        C944   1.532       .  S
C939        C946   1.536       .  S
C941        C944   1.374       .  D
C941       C1202   1.484       .  S
C942        C945   1.370       .  D
C942       C1222   1.475       .  S
C943        C946   1.376       .  D
C943       C1233   1.480       .  S
C944       C1142   1.472       .  S
C945       C1153   1.475       .  S
C946       C1182   1.483       .  S
C947        H948   1.110       .  S
C947        C953   1.534       .  S
C947        C952   1.541       .  S
C947        C951   1.537       .  S
C949        H950   1.111       .  S
C949        C955   1.536       .  S
C949        C954   1.537       .  S
C949        C956   1.540       .  S
C951        C954   1.372       .  D
C951       C1093   1.478       .  S
C952        C955   1.380       .  D
C952       C1082   1.490       .  S
C953        C956   1.378       .  D
C953       C1122   1.494       .  S
C954       C1033   1.489       .  S
C955       C1022   1.487       .  S
C956       C1062   1.481       .  S
O957       Ni963   1.919       .  S
O957        C978   1.273       .  A
O958        C967   1.269       .  A
O959       Ni963   1.901       .  S
C960        O977   1.283       .  A
C960        O969   1.277       .  A
C960       C1053   1.487       .  S
O961       Ni980   1.921       .  S
O961        C967   1.268       .  A
O962       Ni980   1.902       .  S
O962        C964   1.268   1_554  A
Ni963       O968   1.904   1_556  S
C964        O974   1.274       .  A
C964       C1173   1.489       .  S
O965       Ni981   1.905   1_556  S
O965        C971   1.270       .  A
O966        C971   1.276       .  A
C967       C1013   1.478       .  S
O968        C970   1.267       .  A
C970       C1042   1.480       .  S
C971       C1133   1.473       .  S
O973       Ni980   1.892       .  S
Ni975       O977   1.942   1_556  S
O976       Ni981   1.959       .  S
C978        O979   1.272       .  A
C978       C1162   1.474       .  S
O983       Ni989   1.915       .  S
O983       C1004   1.269       .  A
O984        C993   1.274       .  A
O985       Ni989   1.882       .  S
C986       O1003   1.278       .  A
C986        O995   1.278       .  A
C986       C1113   1.472       .  S
O987      Ni1006   1.919       .  S
O987        C993   1.270       .  A
O988      Ni1006   1.903       .  S
O988        C990   1.269       .  A
Ni989       O994   1.901       .  S
C990       O1000   1.274       .  A
C990       C1213   1.484       .  S
O991      Ni1007   1.946       .  S
O991        C997   1.286       .  A
O992        C997   1.278       .  A
C993       C1102   1.481       .  S
O994        C996   1.267       .  A
C996       C1073   1.482       .  S
C997       C1193   1.486       .  S
O999      Ni1006   1.887       .  S
Ni1001     O1003   1.925       .  S
O1002     Ni1007   1.937   1_455  S
C1004      O1005   1.272       .  A
C1004      C1242   1.479       .  S
C1009      C1010   1.399       .  A
C1009      C1014   1.393       .  A
C1009      H1019   1.084       .  S
C1010      C1015   1.474       .  S
C1010      C1011   1.406       .  A
C1011      C1012   1.400       .  A
C1011      F1016   1.357       .  S
C1012      C1013   1.405       .  A
C1012      H1017   1.083       .  S
C1013      C1014   1.410       .  A
C1014      F1018   1.358       .  S
C1015      C1020   1.405       .  A
C1015      C1024   1.399       .  A
C1020      C1021   1.396       .  A
C1020      F1025   1.357       .  S
C1021      C1022   1.404       .  A
C1021      H1026   1.083       .  S
C1022      C1023   1.408       .  A
C1023      C1024   1.397       .  A
C1023      F1027   1.351       .  S
C1024      H1028   1.083       .  S
C1029      C1030   1.407       .  A
C1029      C1034   1.398       .  A
C1029      H1039   1.082       .  S
C1030      C1035   1.497       .  S
C1030      C1031   1.413       .  A
C1031      C1032   1.403       .  A
C1031      F1036   1.357       .  S
C1032      C1033   1.403       .  A
C1032      H1037   1.083       .  S
C1033      C1034   1.404       .  A
C1034      F1038   1.355       .  S
C1035      C1040   1.411       .  A
C1035      C1044   1.409       .  A
C1040      C1041   1.400       .  A
C1040      F1045   1.357       .  S
C1041      C1042   1.403       .  A
C1041      H1046   1.084   1_565  S
C1042      C1043   1.406       .  A
C1043      C1044   1.402       .  A
C1043      F1047   1.358       .  S
C1044      H1048   1.083       .  S
C1049      C1050   1.406       .  A
C1049      C1054   1.403       .  A
C1049      H1059   1.083       .  S
C1050      C1055   1.483       .  S
C1050      C1051   1.403       .  A
C1051      C1052   1.395       .  A
C1051      F1056   1.358       .  S
C1052      C1053   1.408       .  A
C1052      H1057   1.083       .  S
C1053      C1054   1.410       .  A
C1054      F1058   1.357       .  S
C1055      C1060   1.405       .  A
C1055      C1064   1.407       .  A
C1060      C1061   1.398       .  A
C1060      F1065   1.357       .  S
C1061      C1062   1.402       .  A
C1061      H1066   1.080       .  S
C1062      C1063   1.402       .  A
C1063      C1064   1.399       .  A
C1063      F1067   1.357       .  S
C1064      H1068   1.083       .  S
C1069      C1070   1.401       .  A
C1069      C1074   1.394       .  A
C1069      H1079   1.084       .  S
C1070      C1075   1.483       .  S
C1070      C1071   1.409       .  A
C1071      C1072   1.404       .  A
C1071      F1076   1.357       .  S
C1072      C1073   1.406       .  A
C1072      H1077   1.083       .  S
C1073      C1074   1.410       .  A
C1074      F1078   1.358       .  S
C1075      C1080   1.405       .  A
C1075      C1084   1.405       .  A
C1080      C1081   1.399       .  A
C1080      F1085   1.357       .  S
C1081      C1082   1.407       .  A
C1081      H1086   1.083       .  S
C1082      C1083   1.406       .  A
C1083      C1084   1.398       .  A
C1083      F1087   1.357       .  S
C1084      H1088   1.083       .  S
C1089      C1090   1.405       .  A
C1089      C1094   1.397       .  A
C1089      H1099   1.083       .  S
C1090      C1095   1.489       .  S
C1090      C1091   1.413       .  A
C1091      C1092   1.398       .  A
C1091      F1096   1.358       .  S
C1092      C1093   1.399       .  A
C1092      H1097   1.084       .  S
C1093      C1094   1.403       .  A
C1094      F1098   1.356       .  S
C1095      C1100   1.412       .  A
C1095      C1104   1.402       .  A
C1100      C1101   1.403       .  A
C1100      F1105   1.357       .  S
C1101      C1102   1.404       .  A
C1101      H1106   1.083   1_565  S
C1102      C1103   1.411       .  A
C1103      C1104   1.393       .  A
C1103      F1107   1.358       .  S
C1104      H1108   1.083       .  S
C1109      C1110   1.405       .  A
C1109      C1114   1.396       .  A
C1109      H1119   1.084       .  S
C1110      C1115   1.481       .  S
C1110      C1111   1.406       .  A
C1111      C1112   1.401       .  A
C1111      F1116   1.358       .  S
C1112      C1113   1.405       .  A
C1112      H1117   1.084       .  S
C1113      C1114   1.403       .  A
C1114      F1118   1.357       .  S
C1115      C1120   1.405       .  A
C1115      C1124   1.403       .  A
C1120      C1121   1.395       .  A
C1120      F1125   1.358       .  S
C1121      C1122   1.404       .  A
C1121      H1126   1.080       .  S
C1122      C1123   1.409       .  A
C1123      C1124   1.400       .  A
C1123      F1127   1.353       .  S
C1124      H1128   1.083       .  S
C1129      C1130   1.405       .  A
C1129      C1134   1.399       .  A
C1129      H1139   1.083       .  S
C1130      C1135   1.480       .  S
C1130      C1131   1.405       .  A
C1131      C1132   1.396       .  A
C1131      F1136   1.358       .  S
C1132      C1133   1.404       .  A
C1132      H1137   1.084       .  S
C1133      C1134   1.405       .  A
C1134      F1138   1.357       .  S
C1135      C1140   1.406       .  A
C1135      C1144   1.406       .  A
C1140      C1141   1.397       .  A
C1140      F1145   1.357       .  S
C1141      C1142   1.400       .  A
C1141      H1146   1.083       .  S
C1142      C1143   1.401       .  A
C1143      C1144   1.396       .  A
C1143      F1147   1.358       .  S
C1144      H1148   1.083       .  S
C1149      C1150   1.402       .  A
C1149      C1154   1.399       .  A
C1149      H1159   1.083       .  S
C1150      C1155   1.477       .  S
C1150      C1151   1.408       .  A
C1151      C1152   1.397       .  A
C1151      F1156   1.358       .  S
C1152      C1153   1.399       .  A
C1152      H1157   1.084       .  S
C1153      C1154   1.404       .  A
C1154      F1158   1.357       .  S
C1155      C1160   1.407       .  A
C1155      C1164   1.400       .  A
C1160      C1161   1.404       .  A
C1160      F1165   1.357       .  S
C1161      C1162   1.404       .  A
C1161      H1166   1.083       .  S
C1162      C1163   1.408       .  A
C1163      C1164   1.391       .  A
C1163      F1167   1.358       .  S
C1164      H1168   1.084       .  S
C1169      C1170   1.405       .  A
C1169      C1174   1.404       .  A
C1169      H1179   1.083       .  S
C1170      C1175   1.480       .  S
C1170      C1171   1.401       .  A
C1171      C1172   1.394       .  A
C1171      F1176   1.358       .  S
C1172      C1173   1.410       .  A
C1172      H1177   1.083   1_556  S
C1173      C1174   1.410       .  A
C1174      F1178   1.357       .  S
C1175      C1180   1.407       .  A
C1175      C1184   1.403       .  A
C1180      C1181   1.400       .  A
C1180      F1185   1.357       .  S
C1181      C1182   1.402       .  A
C1181      H1186   1.084       .  S
C1182      C1183   1.406       .  A
C1183      C1184   1.399       .  A
C1183      F1187   1.357       .  S
C1184      H1188   1.083       .  S
C1189      C1190   1.405       .  A
C1189      C1194   1.399       .  A
C1189      H1199   1.083       .  S
C1190      C1195   1.490       .  S
C1190      C1191   1.409       .  A
C1191      C1192   1.404       .  A
C1191      F1196   1.357       .  S
C1192      C1193   1.406       .  A
C1192      H1197   1.083       .  S
C1193      C1194   1.410       .  A
C1194      F1198   1.358       .  S
C1195      C1200   1.410       .  A
C1195      C1204   1.407       .  A
C1200      C1201   1.403       .  A
C1200      F1205   1.357       .  S
C1201      C1202   1.402       .  A
C1201      H1206   1.083       .  S
C1202      C1203   1.404       .  A
C1203      C1204   1.398       .  A
C1203      F1207   1.357       .  S
C1204      H1208   1.083       .  S
C1209      C1210   1.405       .  A
C1209      C1214   1.402       .  A
C1209      H1219   1.083       .  S
C1210      C1215   1.480       .  S
C1210      C1211   1.403       .  A
C1211      C1212   1.396       .  A
C1211      F1216   1.358       .  S
C1212      C1213   1.407       .  A
C1212      H1217   1.083       .  S
C1213      C1214   1.409       .  A
C1214      F1218   1.357   1_655  S
C1215      C1220   1.407       .  A
C1215      C1224   1.404       .  A
C1220      C1221   1.400       .  A
C1220      F1225   1.357       .  S
C1221      C1222   1.401       .  A
C1221      H1226   1.083       .  S
C1222      C1223   1.403       .  A
C1223      C1224   1.397       .  A
C1223      F1227   1.358       .  S
C1224      H1228   1.083       .  S
C1229      C1230   1.404       .  A
C1229      C1234   1.398       .  A
C1229      H1239   1.083       .  S
C1230      C1235   1.484       .  S
C1230      C1231   1.410       .  A
C1231      C1232   1.397       .  A
C1231      F1236   1.358       .  S
C1232      C1233   1.400       .  A
C1232      H1237   1.084       .  S
C1233      C1234   1.406       .  A
C1234      F1238   1.357       .  S
C1235      C1240   1.410       .  A
C1235      C1244   1.401       .  A
C1240      C1241   1.403       .  A
C1240      F1245   1.357       .  S
C1241      C1242   1.405       .  A
C1241      H1246   1.083       .  S
C1242      C1243   1.409       .  A
C1243      C1244   1.391       .  A
C1243      F1247   1.358       .  S
C1244      H1248   1.083       .  S
