geometry optimzed in LAMMPS
_audit_creation_date              2020-11-30 
_audit_creation_method            'lammps2cif' 
_symmetry_space_group_name_H-M    'P1' 
_symmetry_Int_Tables_number       1 
_symmetry_cell_setting            triclinic 
loop_ 
_symmetry_equiv_pos_as_xyz 
  x,y,z 
_cell_length_a                    19.16567324 
_cell_length_b                    56.381070973112585 
_cell_length_c                    43.925509134864875 
_cell_angle_alpha                 89.98828629679126 
_cell_angle_beta                  90.24647384635149 
_cell_angle_gamma                 90.71785703575328 
loop_ 
_atom_site_label 
_atom_site_type_symbol 
_atom_site_fract_x 
_atom_site_fract_y 
_atom_site_fract_z 
_atom_site_charge 
C1          C  0.26883955  0.30624587  0.24403916     0.79900
N2          N  0.21229582  0.29442977  0.25524087    -0.78500
C3          C  0.14686255  0.30284685  0.25018117     0.82300
N4          N  0.13860371  0.32359492  0.23497684    -0.78400
C5          C  0.19504356  0.33580504  0.22433369     0.82400
N6          N  0.25981081  0.32691777  0.22888723    -0.80100
C7          C  0.31906997  0.77488399  0.23670061     0.79900
N8          N  0.26542716  0.78948172  0.24321193    -0.78500
C9          C  0.19829670  0.78149930  0.24100423     0.82300
N10         N  0.18477305  0.75867544  0.23265027    -0.78400
C11         C  0.23851855  0.74385899  0.22679539     0.82400
N12         N  0.30493130  0.75222139  0.22835141    -0.80100
C13         C  0.82864532  0.78024692  0.24391823     0.79900
N14         N  0.88629781  0.79382168  0.24935344    -0.78500
C15         C  0.95074287  0.78531711  0.24277158     0.82300
N16         N  0.95706756  0.76328305  0.23061134    -0.78400
C17         C  0.89918955  0.74976663  0.22506771     0.82400
N18         N  0.83545500  0.75828666  0.23199451    -0.80100
O19         O  0.93851757  0.56651195  0.21066766    -0.74800
O20         O  0.06535530  0.51522244  0.21874663    -0.74800
O21         O  0.07396757  0.56352627  0.22252636    -0.74900
O22         O  0.92993703  0.51797437  0.20700920    -0.74900
O23         O  0.95426502  0.51900564  0.15758876    -0.74900
O24         O  0.09569398  0.56610599  0.17301391    -0.74800
O25         O  0.09021219  0.51763435  0.16940305    -0.74800
O26         O  0.95992411  0.56789452  0.16104266    -0.74900
Ni27       Ni  0.00102954  0.54073907  0.21647021     1.25400
Ni28       Ni  0.02564491  0.54273701  0.16345493     1.25400
C29         C  0.93314448  0.57699495  0.18489410     0.87400
C30         C  0.09570576  0.50710460  0.19511519     0.87300
C31         C  0.10505627  0.57364761  0.20027832     0.87300
C32         C  0.92319742  0.50928241  0.18020922     0.87500
C33         C  0.77812264  0.31582373  0.26157519     0.79900
N34         N  0.78943991  0.33625445  0.24598979    -0.78500
C35         C  0.85458104  0.34271437  0.23697837     0.82300
N36         N  0.90911186  0.32827215  0.24319905    -0.78400
C37         C  0.89860853  0.30784774  0.25903883     0.82400
N38         N  0.83293804  0.30160682  0.26808284    -0.80100
C39         C  0.02097288  0.26217567  0.29461822     0.86100
C40         C  0.96074168  0.27980316  0.29272680    -0.54100
C41         C  0.95777119  0.29227967  0.26623372     0.09000
C42         C  0.01673525  0.28644995  0.24382466     0.20000
C43         C  0.01457388  0.24683820  0.26591896    -0.54800
C44         C  0.01115300  0.25940083  0.23950020     0.09200
C45         C  0.08741564  0.27728644  0.28846326    -0.54400
C46         C  0.08525595  0.28982517  0.26189562     0.09700
H47         H  0.92224245  0.28170956  0.31061485     0.14200
H48         H  0.01482467  0.29650727  0.22208620     0.00000
H49         H  0.01346861  0.22757178  0.26639192     0.14500
H50         H  0.13411015  0.27750373  0.30226611     0.14300
C51         C  0.08429635  0.83002189  0.27498389     0.86100
C52         C  0.14485987  0.81251706  0.27294367    -0.54100
C53         C  0.14103620  0.79750643  0.24865931     0.09000
C54         C  0.07718692  0.80132991  0.22811581     0.20000
C55         C  0.08536668  0.84275643  0.24385293    -0.54800
C56         C  0.08205851  0.82768590  0.21958325     0.09200
C57         C  0.01696808  0.81496959  0.27336959    -0.54400
C58         C  0.01335692  0.79989310  0.24917594     0.09700
H59         H  0.18817975  0.81247234  0.28897264     0.14200
H60         H  0.07418427  0.78932364  0.20808038     0.00000
H61         H  0.08626580  0.86171411  0.24024689     0.14500
H62         H  0.97503396  0.81645215  0.28980901     0.14300
C63         C  0.00898312  0.16676102  0.48912746     0.79900
N64         N  0.00830899  0.17972101  0.01570271    -0.78500
C65         C  0.00689504  0.16848785  0.04300362     0.82300
N66         N  0.00367339  0.14442619  0.04386861    -0.78400
C67         C  0.00337610  0.13165315  0.01767639     0.82400
N68         N  0.00597047  0.14274480  0.49005901    -0.80100
C69         C  0.05563837  0.92147847  0.47148823     0.79900
N70         N  0.03753089  0.94453456  0.47437161    -0.78500
C71         C  0.02722397  0.95469016  0.00258358     0.82300
N72         N  0.03391396  0.94057486  0.02747909    -0.78400
C73         C  0.05044369  0.91734921  0.02434086     0.82400
N74         N  0.06297953  0.90852497  0.99628370    -0.80100
C75         C  0.96885588  0.01450153  0.03327252    -0.11800
C76         C  0.00176074  0.02987592  0.01262983     0.14800
C77         C  0.03863083  0.01958664  0.48685372     0.01700
C78         C  0.04310132  0.99501438  0.48404172    -0.16100
C79         C  0.01344942  0.98034319  0.00592765    -0.10900
C80         C  0.97340576  0.98985554  0.02997446     0.08400
C81         C  0.99477338  0.05569853  0.01650116     0.09400
S82         S  0.08396599  0.03747734  0.45894206    -0.25200
H83         H  0.07362918  0.98789085  0.46554393     0.19700
S84         S  0.92424836  0.97174552  0.05628052    -0.30900
H85         H  0.93837105  0.02176437  0.05168844     0.10000
C86         C  0.95382176  0.06877583  0.49479012     0.03200
C87         C  0.95785388  0.09356465  0.49627864    -0.13200
C88         C  0.00035164  0.10553722  0.01849528    -0.08900
C89         C  0.04195192  0.09209505  0.03863270     0.06700
C90         C  0.03789537  0.06733465  0.03770282    -0.14000
S91         S  0.89727272  0.05447875  0.46716262    -0.30900
H92         H  0.92733808  0.10407513  0.48060463     0.10900
S93         S  0.10519542  0.10527354  0.06422841    -0.28000
H94         H  0.07158910  0.05703793  0.05238279     0.08100
H95         H  0.90413651  0.95472379  0.03440851     0.26600
H96         H  0.87019786  0.07532672  0.45437850     0.21400
H97         H  0.12752286  0.12293870  0.04370310     0.26700
H98         H  0.09938051  0.05678627  0.47813987     0.15500
C99         C  0.07972991  0.84868596  0.35922236    -0.11800
C100        C  0.08528973  0.87337383  0.35723063     0.14800
C101        C  0.09670473  0.88408981  0.32873948     0.01700
C102        C  0.09700489  0.87005559  0.30254151    -0.16100
C103        C  0.08794431  0.84516803  0.30394462    -0.10900
C104        C  0.08222026  0.83442447  0.33318335     0.08400
C105        C  0.07902089  0.88727457  0.38549674     0.09400
S106        S  0.11172293  0.91558066  0.32421167    -0.25200
H107        H  0.10584209  0.87911824  0.28138255     0.19700
S108        S  0.07728863  0.80253139  0.33810803    -0.30900
H109        H  0.07251146  0.84063215  0.38136994     0.10000
C110        C  0.02065519  0.90158681  0.39112194     0.03200
C111        C  0.01590998  0.91357840  0.41895563    -0.13200
C112        C  0.06780494  0.91119145  0.44131056    -0.08900
C113        C  0.12698343  0.89732034  0.43525564     0.06700
C114        C  0.13159069  0.88534207  0.40756407    -0.14000
S115        S  0.95019427  0.90338789  0.36379845    -0.30900
H116        H  0.97018601  0.92396165  0.42391499     0.10900
S117        S  0.19877297  0.89451540  0.46164328    -0.28000
H118        H  0.17664067  0.87446033  0.40308249     0.08100
H119        H  0.08379091  0.80219339  0.37001138     0.26600
H120        H  0.91349122  0.92148562  0.37857278     0.21400
H121        H  0.19280561  0.91736855  0.47413793     0.26700
H122        H  0.14088067  0.91958530  0.35319733     0.15500
C123        C  0.12901903  0.84718985  0.13974584    -0.11800
C124        C  0.06843104  0.85937919  0.13161684     0.14800
C125        C  0.01076995  0.85940595  0.15150536     0.01700
C126        C  0.01608598  0.84808988  0.17962244    -0.16100
C127        C  0.07753227  0.83670328  0.18828308    -0.10900
C128        C  0.13443086  0.83603718  0.16807062     0.08400
C129        C  0.06889716  0.87373869  0.10368818     0.09400
S130        S  0.93102606  0.87496250  0.14349123    -0.25200
H131        H  0.97255001  0.84868143  0.19528338     0.19700
S132        S  0.21618786  0.82249538  0.17777219    -0.30900
H133        H  0.17341274  0.84734604  0.12453021     0.10000
C134        C  0.09326400  0.89739138  0.10405993     0.03200
C135        C  0.08652750  0.91127035  0.07781838    -0.13200
C136        C  0.05597103  0.90189569  0.05125968    -0.08900
C137        C  0.03284416  0.87792585  0.05093219     0.06700
C138        C  0.04095182  0.86401438  0.07695811    -0.14000
S139        S  0.13285269  0.90983476  0.13797046    -0.30900
H140        H  0.10549690  0.92944850  0.07789845     0.10900
S141        S  0.98820101  0.86440638  0.01901683    -0.28000
H142        H  0.02200188  0.84581229  0.07692421     0.08100
H143        H  0.21689207  0.83031651  0.20815640     0.26600
H144        H  0.14042892  0.93314835  0.12694405     0.21400
H145        H  0.94890423  0.88458685  0.01184755     0.26700
H146        H  0.93161063  0.87198560  0.11180677     0.15500
C147        C  0.95891834  0.21766978  0.35563579    -0.11800
C148        C  0.01233874  0.21942634  0.37727417     0.14800
C149        C  0.06820169  0.23537414  0.37260400     0.01700
C150        C  0.07071930  0.24883768  0.34598997    -0.16100
C151        C  0.01757462  0.24723352  0.32371037    -0.10900
C152        C  0.95985294  0.23165204  0.32928513     0.08400
C153        C  0.00773615  0.20486868  0.40502494     0.09400
S154        S  0.13756476  0.23973383  0.40006802    -0.25200
H155        H  0.11384387  0.26096316  0.34385456     0.19700
S156        S  0.88581212  0.22946508  0.30352915    -0.30900
H157        H  0.91592835  0.20549613  0.35977940     0.10000
C158        C  0.96000227  0.21035800  0.42816989     0.03200
C159        C  0.96177071  0.19760721  0.45546969    -0.13200
C160        C  0.00965329  0.17930153  0.45984139    -0.08900
C161        C  0.05671044  0.17358367  0.43636324     0.06700
C162        C  0.05478515  0.18629899  0.40908092    -0.14000
S163        S  0.89877533  0.23420592  0.42342652    -0.30900
H164        H  0.92583198  0.20189458  0.47354388     0.10900
S165        S  0.12294828  0.15134894  0.44041541    -0.28000
H166        H  0.09172939  0.18226754  0.39126379     0.08100
H167        H  0.84605666  0.21299498  0.32037694     0.26600
H168        H  0.86172577  0.23023384  0.45056212     0.21400
H169        H  0.13660966  0.15587352  0.47138074     0.26700
H170        H  0.09616440  0.23622998  0.42606623     0.15500
C171        C  0.04311980  0.21625944  0.10216606    -0.11800
C172        C  0.00265038  0.20797533  0.12649230     0.14800
C173        C  0.96463125  0.18646715  0.12355350     0.01700
C174        C  0.96711289  0.17403162  0.09605068    -0.16100
C175        C  0.00774599  0.18225197  0.07160005    -0.10900
C176        C  0.04737729  0.20343592  0.07507201     0.08400
C177        C  0.00535227  0.22149767  0.15512301     0.09400
S178        S  0.91254720  0.17356589  0.15368510    -0.25200
H179        H  0.93687755  0.15774368  0.09372859     0.19700
S180        S  0.10817564  0.21422867  0.04692115    -0.30900
H181        H  0.07372139  0.23245020  0.10477820     0.10000
C182        C  0.06123684  0.21866312  0.17563154     0.03200
C183        C  0.06248299  0.23173967  0.20266610    -0.13200
C184        C  0.00840808  0.24730603  0.20977047    -0.08900
C185        C  0.95191062  0.24983831  0.18937797     0.06700
C186        C  0.95153810  0.23721122  0.16196137    -0.14000
S187        S  0.12984911  0.19789019  0.16769000    -0.30900
H188        H  0.10532326  0.22969280  0.21858320     0.10900
S189        S  0.87715220  0.26761350  0.19797401    -0.28000
H190        H  0.90817100  0.23908935  0.14625858     0.08100
H191        H  0.13213744  0.19159428  0.03886141     0.26600
H192        H  0.16771771  0.20149770  0.19483213     0.21400
H193        H  0.87344238  0.26038024  0.22858737     0.26700
H194        H  0.93532103  0.18785134  0.17797789     0.15500
C195        C  0.89888901  0.44451119  0.16158646    -0.11800
C196        C  0.86403284  0.43702417  0.18786581     0.14800
C197        C  0.83444092  0.45402863  0.20730792     0.01700
C198        C  0.84615653  0.47812334  0.20162382    -0.16100
C199        C  0.88761645  0.48581453  0.17708846    -0.10900
C200        C  0.90990431  0.46866590  0.15562575     0.08400
C201        C  0.86667924  0.41177139  0.19658478     0.09400
S202        S  0.78790304  0.44620526  0.24159187    -0.25200
H203        H  0.82763522  0.49088304  0.21808563     0.19700
S204        S  0.95863258  0.47594475  0.12185959    -0.30900
H205        H  0.92064314  0.43140957  0.14638386     0.10000
C206        C  0.81494734  0.39545361  0.18719261     0.03200
C207        C  0.81413356  0.37258584  0.19972498    -0.13200
C208        C  0.86468183  0.36565782  0.22117394    -0.08900
C209        C  0.91905971  0.38169675  0.22912860     0.06700
C210        C  0.91937148  0.40459443  0.21667420    -0.14000
S211        S  0.74764141  0.40432951  0.16081394    -0.30900
H212        H  0.77278099  0.36023373  0.19348593     0.10900
S213        S  0.98414907  0.37425496  0.25734452    -0.28000
H214        H  0.95891704  0.41739494  0.22365624     0.08100
H215        H  0.91377678  0.49440797  0.11337987     0.26600
H216        H  0.71261362  0.38228219  0.15942509     0.21400
H217        H  0.02840511  0.39394321  0.25224521     0.26700
H218        H  0.76286181  0.42400898  0.23168011     0.15500
C219        C  0.85718546  0.69169801  0.18556154    -0.11800
C220        C  0.90156585  0.67632149  0.20120402     0.14800
C221        C  0.95039328  0.68568256  0.22242930     0.01700
C222        C  0.95157910  0.71005884  0.22831564    -0.16100
C223        C  0.90474306  0.72528468  0.21377027    -0.10900
C224        C  0.85829199  0.71603053  0.19154088     0.08400
C225        C  0.89578831  0.65069114  0.19470938     0.09400
S226        S  0.01067609  0.66766836  0.24379151    -0.25200
H227        H  0.98722891  0.71702953  0.24542405     0.19700
S228        S  0.79930109  0.73429288  0.16997302    -0.30900
H229        H  0.82072803  0.68461606  0.16886039     0.10000
C230        C  0.86812142  0.63459654  0.21608676     0.03200
C231        C  0.87322728  0.61017133  0.21066262    -0.13200
C232        C  0.90499432  0.60148275  0.18408489    -0.08900
C233        C  0.92450458  0.61800449  0.16107846     0.06700
C234        C  0.92055100  0.64230341  0.16690139    -0.14000
S235        S  0.82955708  0.64518750  0.25090254    -0.30900
H236        H  0.85666991  0.59785497  0.22819261     0.10900
S237        S  0.95988598  0.60976350  0.12470630    -0.28000
H238        H  0.93945335  0.65482695  0.15001335     0.08100
H239        H  0.84276997  0.75458646  0.16994211     0.26600
H240        H  0.80610340  0.62295875  0.26153321     0.21400
H241        H  0.90824424  0.59228219  0.11928397     0.26700
H242        H  0.01018601  0.64777926  0.22459412     0.15500
C243        C  0.64426127  0.78191388  0.27226995    -0.11800
C244        C  0.61315556  0.79564287  0.24943771     0.14800
C245        C  0.65580023  0.80807272  0.22852800     0.01700
C246        C  0.72795003  0.80449436  0.22885644    -0.16100
C247        C  0.75815463  0.78896332  0.24988794    -0.10900
C248        C  0.71650898  0.77836380  0.27258980     0.08400
C249        C  0.53725177  0.79261776  0.24438688     0.09400
S250        S  0.62033143  0.82684698  0.19920277    -0.25200
H251        H  0.75999533  0.81257742  0.21131511     0.19700
S252        S  0.75490824  0.75897859  0.30060556    -0.30900
H253        H  0.61128771  0.77248276  0.28830368     0.10000
C254        C  0.51231297  0.77729463  0.22135265     0.03200
C255        C  0.44067377  0.77273753  0.21882252    -0.13200
C256        C  0.39292930  0.78275727  0.23916746    -0.08900
C257        C  0.41817657  0.79832894  0.26213806     0.06700
C258        C  0.48997153  0.80320306  0.26432491    -0.14000
S259        S  0.57206325  0.76234698  0.19623385    -0.30900
H260        H  0.42182646  0.76078621  0.20125334     0.10900
S261        S  0.36290071  0.81111331  0.29069473    -0.28000
H262        H  0.50944807  0.81462860  0.28236878     0.08100
H263        H  0.69393504  0.75511655  0.31771888     0.26600
H264        H  0.52142736  0.75063943  0.17826517     0.21700
H265        H  0.32618608  0.78984704  0.29661034     0.26700
H266        H  0.55869991  0.83240598  0.21476615     0.15500
C267        C  0.25590848  0.67706401  0.22905769    -0.11800
C268        C  0.20185690  0.66981188  0.20957678     0.14800
C269        C  0.15969659  0.68709168  0.19533978     0.01700
C270        C  0.17245343  0.71116461  0.20139863    -0.16100
C271        C  0.22609353  0.71835605  0.22131605    -0.10900
C272        C  0.26805171  0.70095306  0.23536380     0.08400
C273        C  0.18701991  0.64411781  0.20761890     0.09400
S274        S  0.08907515  0.68000619  0.16935513    -0.25200
H275        H  0.14032939  0.72439833  0.19045409     0.19700
S276        S  0.33514014  0.70770437  0.26309969    -0.30900
H277        H  0.28748045  0.66384157  0.24035342     0.10000
C278        C  0.19768347  0.63100506  0.18089982     0.03200
C279        C  0.17610798  0.60717636  0.17990015    -0.13200
C280        C  0.14522157  0.59605289  0.20534865    -0.08900
C281        C  0.14262724  0.60872464  0.23329622     0.06700
C282        C  0.16294846  0.63262164  0.23383395    -0.14000
S283        S  0.23710211  0.64476463  0.14796947    -0.30900
H284        H  0.18029223  0.59756632  0.15867481     0.10900
S285        S  0.11158412  0.59552677  0.26840656    -0.28000
H286        H  0.15807886  0.64278273  0.25461880     0.08100
H287        H  0.29710898  0.72551749  0.27780899     0.26600
H288        H  0.24077309  0.62409262  0.13015590     0.21400
H289        H  0.12213303  0.61533554  0.28741082     0.26700
H290        H  0.07673350  0.65654171  0.17863813     0.15500
C291        C  0.45950886  0.29171313  0.23381003    -0.11800
C292        C  0.48461895  0.29424035  0.26375997     0.14800
C293        C  0.43603665  0.29726970  0.28758397     0.01700
C294        C  0.36482144  0.29940216  0.28075029    -0.16100
C295        C  0.34054475  0.29833487  0.25061716    -0.10900
C296        C  0.38822675  0.29351449  0.22706817     0.08400
C297        C  0.56122515  0.29751316  0.26849744     0.09400
S298        S  0.46196119  0.29960452  0.32698728    -0.25200
H299        H  0.32854378  0.30311936  0.29894514     0.19700
S300        S  0.36150418  0.29039775  0.18784099    -0.30900
H301        H  0.49605869  0.28943488  0.21531577     0.10000
C302        C  0.61007915  0.28019944  0.25992557     0.03200
C303        C  0.68179419  0.28591784  0.26021053    -0.13200
C304        C  0.70560187  0.30857976  0.26896313    -0.08900
C305        C  0.65704134  0.32503045  0.28021998     0.06700
C306        C  0.58572180  0.31951950  0.27933412    -0.14000
S307        S  0.58125344  0.25104323  0.24796241    -0.30900
H308        H  0.71903580  0.27320351  0.25186666     0.10900
S309        S  0.68277588  0.35344464  0.29575987    -0.28000
H310        H  0.54877263  0.33281472  0.28638462     0.08100
H311        H  0.29320822  0.28241534  0.19405736     0.26600
H312        H  0.64801225  0.24114294  0.24542212     0.21400
H313        H  0.74875335  0.34614777  0.30603379     0.26700
H314        H  0.52276923  0.28609253  0.32415597     0.15500
C315        C  0.11919026  0.39293599  0.19280796    -0.11800
C316        C  0.17289175  0.40912176  0.20025680     0.14800
C317        C  0.23602441  0.40063026  0.21236330     0.01700
C318        C  0.24242239  0.37654391  0.21875444    -0.16100
C319        C  0.18788191  0.36030585  0.21254657    -0.10900
C320        C  0.12670004  0.36858685  0.19805190     0.08400
C321        C  0.15972995  0.43484493  0.19799198     0.09400
S322        S  0.30974235  0.41974902  0.22096217    -0.25200
H323        H  0.29003172  0.37063594  0.22958491     0.19700
S324        S  0.05717217  0.34916063  0.18518540    -0.30900
H325        H  0.07077289  0.39935518  0.18321049     0.10000
C326        C  0.14636424  0.44597172  0.16993998     0.03200
C327        C  0.13167366  0.47022644  0.16944868    -0.13200
C328        C  0.12932139  0.48361907  0.19648644    -0.08900
C329        C  0.14712490  0.47265227  0.22437863     0.06700
C330        C  0.16090943  0.44833567  0.22480621    -0.14000
S331        S  0.14763214  0.42935401  0.13478054    -0.30900
H332        H  0.11857043  0.47847651  0.14797179     0.10900
S333        S  0.15360657  0.48927998  0.25952145    -0.28000
H334        H  0.17218319  0.43960543  0.24619413     0.08100
H335        H  0.10127131  0.33033360  0.17749173     0.26600
H336        H  0.12481791  0.44773180  0.11564526     0.21400
H337        H  0.17219520  0.47028046  0.27853214     0.26700
H338        H  0.29668937  0.43625822  0.19767550     0.15500
C339        C  0.27175349  0.30629604  0.74340732     0.79900
N340        N  0.21535618  0.29436752  0.75453666    -0.78500
C341        C  0.14990800  0.30285018  0.74981468     0.82300
N342        N  0.14147900  0.32376135  0.73503302    -0.78400
C343        C  0.19779084  0.33609757  0.72451435     0.82400
N344        N  0.26262570  0.32717179  0.72872973    -0.80100
C345        C  0.31379317  0.77517630  0.73702491     0.79900
N346        N  0.26011996  0.78976577  0.74354036    -0.78500
C347        C  0.19298263  0.78174067  0.74142456     0.82300
N348        N  0.17949211  0.75889119  0.73320991    -0.78400
C349        C  0.23323249  0.74408629  0.72736072     0.82400
N350        N  0.29959744  0.75249471  0.72877982    -0.80100
C351        C  0.82377988  0.77876970  0.74613654     0.79900
N352        N  0.88109724  0.79250133  0.75163239    -0.78500
C353        C  0.94575210  0.78423113  0.74494180     0.82300
N354        N  0.95264564  0.76229670  0.73256772    -0.78400
C355        C  0.89510744  0.74865381  0.72693631     0.82400
N356        N  0.83114592  0.75692703  0.73394352    -0.80100
O357        O  0.93434063  0.56621956  0.71191288    -0.74800
O358        O  0.06322892  0.51559706  0.72027081    -0.74800
O359        O  0.07024626  0.56395207  0.72355411    -0.74900
O360        O  0.92758159  0.51774452  0.70863879    -0.74900
O361        O  0.95078203  0.51899617  0.65911592    -0.74900
O362        O  0.09234935  0.56600824  0.67402735    -0.74800
O363        O  0.08684050  0.51761801  0.67077849    -0.74800
O364        O  0.95624656  0.56775571  0.66233012    -0.74900
Ni365      Ni  0.99797057  0.54082544  0.71783810     1.25400
Ni366      Ni  0.02215947  0.54267308  0.66476437     1.25400
C367        C  0.92843545  0.57660642  0.68610771     0.87400
C368        C  0.09325418  0.50735840  0.69663215     0.87300
C369        C  0.10183509  0.57374425  0.70118050     0.87300
C370        C  0.92038748  0.50915575  0.68180435     0.87500
C371        C  0.78110303  0.31516560  0.76113812     0.79900
N372        N  0.79235758  0.33561591  0.74561396    -0.78500
C373        C  0.85745257  0.34212001  0.73665725     0.82300
N374        N  0.91205695  0.32772469  0.74287526    -0.78400
C375        C  0.90161830  0.30726076  0.75863364     0.82400
N376        N  0.83595132  0.30095515  0.76763477    -0.80100
C377        C  0.02494807  0.26182366  0.79412744     0.86100
C378        C  0.96410087  0.27921365  0.79223852    -0.54100
C379        C  0.96094136  0.29177051  0.76581098     0.09000
C380        C  0.02021983  0.28624248  0.74344369     0.20000
C381        C  0.01923516  0.24655857  0.76531090    -0.54800
C382        C  0.01555630  0.25921328  0.73894889     0.09200
C383        C  0.09094072  0.27718864  0.78809565    -0.54400
C384        C  0.08851650  0.28977977  0.76157780     0.09700
H385        H  0.92543123  0.28092877  0.81009560     0.14200
H386        H  0.01816363  0.29637185  0.72176187     0.00000
H387        H  0.01895200  0.22728999  0.76566004     0.14500
H388        H  0.13769500  0.27744122  0.80187695     0.14300
C389        C  0.07828927  0.82974160  0.77604796     0.86100
C390        C  0.13979220  0.81271326  0.77341698    -0.54100
C391        C  0.13564847  0.79766703  0.74921382     0.09000
C392        C  0.07050536  0.80100491  0.72927343     0.20000
C393        C  0.07661751  0.84245295  0.74492295    -0.54800
C394        C  0.07298767  0.82739650  0.72065030     0.09200
C395        C  0.01184370  0.81419082  0.77517027    -0.54400
C396        C  0.00792755  0.79909313  0.75098800     0.09700
H397        H  0.18376738  0.81291778  0.78911237     0.14200
H398        H  0.06719690  0.78894672  0.70929832     0.00000
H399        H  0.07580150  0.86139893  0.74135045     0.14500
H400        H  0.97063411  0.81540774  0.79199531     0.14300
C401        C  0.00846388  0.16709590  0.98943630     0.79900
N402        N  0.01028287  0.17931396  0.51543211    -0.78500
C403        C  0.01001091  0.16799459  0.54266853     0.82300
N404        N  0.00637545  0.14392557  0.54345579    -0.78400
C405        C  0.00490201  0.13121680  0.51718826     0.82400
N406        N  0.00550725  0.14306757  0.99047538    -0.80100
C407        C  0.05743624  0.92248005  0.97136031     0.79900
N408        N  0.03889704  0.94547563  0.97448614    -0.78500
C409        C  0.02529358  0.95392185  0.50232076     0.82300
N410        N  0.03082020  0.93987568  0.52732960    -0.78400
C411        C  0.04688201  0.91657879  0.52449307     0.82400
N412        N  0.06022684  0.90760497  0.49655511    -0.80100
C413        C  0.96839298  0.01418498  0.53229792    -0.11800
C414        C  0.00059434  0.02931925  0.51116032     0.14800
C415        C  0.04037618  0.02046147  0.98831008     0.01700
C416        C  0.04516979  0.99593858  0.98506796    -0.16100
C417        C  0.01193329  0.97965764  0.50536059    -0.10900
C418        C  0.97283258  0.98950090  0.52950067     0.08400
C419        C  0.99442896  0.05520454  0.51491085     0.09400
S420        S  0.08543175  0.03875990  0.96076502    -0.25200
H421        H  0.07620164  0.98903857  0.96660333     0.19700
S422        S  0.92501632  0.97179830  0.55670246    -0.30900
H423        H  0.93866206  0.02167863  0.55081219     0.10000
C424        C  0.95167021  0.06895971  0.99704964     0.03200
C425        C  0.95502084  0.09376765  0.99816617    -0.13200
C426        C  0.00109672  0.10505775  0.51773202    -0.08900
C427        C  0.03988190  0.09128442  0.53858213     0.06700
C428        C  0.03532918  0.06654151  0.53718154    -0.14000
S429        S  0.89303818  0.05421467  0.97066208    -0.30900
H430        H  0.92240450  0.10408140  0.98308336     0.10900
S431        S  0.10025192  0.10396138  0.56583005    -0.28000
H432        H  0.06688004  0.05601679  0.55248317     0.08100
H433        H  0.90280273  0.95471240  0.53529309     0.26600
H434        H  0.86821395  0.07482852  0.95643719     0.21400
H435        H  0.12690473  0.12127352  0.54578033     0.26700
H436        H  0.10232019  0.05748411  0.98067818     0.15500
C437        C  0.07786172  0.84888262  0.86011392    -0.11800
C438        C  0.08351670  0.87355169  0.85774946     0.14800
C439        C  0.09405918  0.88404337  0.82908913     0.01700
C440        C  0.09282665  0.86985196  0.80307577    -0.16100
C441        C  0.08313747  0.84500712  0.80483251    -0.10900
C442        C  0.07908217  0.83443775  0.83422047     0.08400
C443        C  0.07830271  0.88773069  0.88577540     0.09400
S444        S  0.11006330  0.91543964  0.82414751    -0.25200
H445        H  0.10145175  0.87874518  0.78179873     0.19700
S446        S  0.07531194  0.80256689  0.83951145    -0.30900
H447        H  0.07171212  0.84099965  0.88242608     0.10000
C448        C  0.02038200  0.90224122  0.89141561     0.03200
C449        C  0.01677234  0.91461353  0.91900010    -0.13200
C450        C  0.06913858  0.91226785  0.94114449    -0.08900
C451        C  0.12780893  0.89814854  0.93506733     0.06700
C452        C  0.13145557  0.88590288  0.90756608    -0.14000
S453        S  0.94904592  0.90376036  0.86447249    -0.30900
H454        H  0.97148812  0.92519521  0.92400598     0.10900
S455        S  0.19993957  0.89519072  0.96126361    -0.28000
H456        H  0.17609188  0.87483863  0.90305330     0.08100
H457        H  0.08211127  0.80246526  0.87140765     0.26600
H458        H  0.90923616  0.92032689  0.88059198     0.21400
H459        H  0.19446524  0.91800747  0.97391078     0.26700
H460        H  0.14185832  0.91930452  0.85264401     0.15500
C461        C  0.11410987  0.84447783  0.63922241    -0.11800
C462        C  0.05796830  0.85936240  0.63278064     0.14800
C463        C  0.00395854  0.86191630  0.65420608     0.01700
C464        C  0.00916913  0.85052224  0.68228263    -0.16100
C465        C  0.06686288  0.83648636  0.68935227    -0.10900
C466        C  0.11947846  0.83320299  0.66745774     0.08400
C467        C  0.05980159  0.87360111  0.60476409     0.09400
S468        S  0.92907929  0.88038855  0.64776108    -0.25200
H469        H  0.96860692  0.85302851  0.69908505     0.19700
S470        S  0.19702591  0.81653130  0.67510514    -0.30900
H471        H  0.15570453  0.84264733  0.62277033     0.10000
C472        C  0.08261063  0.89742201  0.60528318     0.03200
C473        C  0.07765938  0.91105768  0.57875281    -0.13200
C474        C  0.05076679  0.90126206  0.55168087    -0.08900
C475        C  0.02908872  0.87712342  0.55128363     0.06700
C476        C  0.03492544  0.86351520  0.57770549    -0.14000
S477        S  0.11825420  0.91033401  0.63973283    -0.30900
H478        H  0.09517681  0.92940139  0.57903204     0.10900
S479        S  0.98918078  0.86293655  0.51868841    -0.28000
H480        H  0.01705753  0.84518730  0.57757394     0.08100
H481        H  0.20776910  0.82649934  0.70412157     0.26600
H482        H  0.13340569  0.93288596  0.62755984     0.21400
H483        H  0.94820045  0.88255418  0.51078180     0.26700
H484        H  0.92727904  0.87813200  0.61592798     0.15500
C485        C  0.96432720  0.21702756  0.85512700    -0.11800
C486        C  0.01711707  0.21921606  0.87700471     0.14800
C487        C  0.07221495  0.23548796  0.87244599     0.01700
C488        C  0.07457582  0.24887111  0.84574002    -0.16100
C489        C  0.02201191  0.24684659  0.82323018    -0.10900
C490        C  0.96514446  0.23087802  0.82865128     0.08400
C491        C  0.01197240  0.20500331  0.90506068     0.09400
S492        S  0.14050721  0.24042802  0.90024744    -0.25200
H493        H  0.11695300  0.26133639  0.84375001     0.19700
S494        S  0.89153094  0.22824783  0.80274276    -0.30900
H495        H  0.92158741  0.20475458  0.85928788     0.10000
C496        C  0.96435629  0.21100328  0.92803377     0.03200
C497        C  0.96449034  0.19828759  0.95538162    -0.13200
C498        C  0.01093222  0.17959921  0.96008249    -0.08900
C499        C  0.05843779  0.17354599  0.93689500     0.06700
C500        C  0.05797419  0.18618372  0.90951026    -0.14000
S501        S  0.90498044  0.23533866  0.92286413    -0.30900
H502        H  0.92812718  0.20282887  0.97319084     0.10900
S503        S  0.12336879  0.15092526  0.94144188    -0.28000
H504        H  0.09507478  0.18182221  0.89188067     0.08100
H505        H  0.85837363  0.20878439  0.81684698     0.26600
H506        H  0.87570805  0.23457220  0.95215727     0.21400
H507        H  0.13649297  0.15555631  0.97242629     0.26700
H508        H  0.09809717  0.23727273  0.92600395     0.15500
C509        C  0.05187118  0.21541130  0.60159198    -0.11800
C510        C  0.01040681  0.20775688  0.62592152     0.14800
C511        C  0.97016116  0.18674614  0.62309862     0.01700
C512        C  0.97103087  0.17414783  0.59570258    -0.16100
C513        C  0.01262763  0.18173460  0.57124177    -0.10900
C514        C  0.05463989  0.20241330  0.57457822     0.08400
C515        C  0.01278502  0.22155540  0.65437149     0.09400
S516        S  0.91696387  0.17507747  0.65353658    -0.25200
H517        H  0.93892173  0.15827162  0.59347925     0.19700
S518        S  0.11610559  0.21239242  0.54621765    -0.30900
H519        H  0.08398794  0.23127148  0.60407079     0.10000
C520        C  0.06896937  0.21921802  0.67484415     0.03200
C521        C  0.06906262  0.23216102  0.70198630    -0.13200
C522        C  0.01392649  0.24728594  0.70909749    -0.08900
C523        C  0.95773074  0.24963963  0.68850322     0.06700
C524        C  0.95806420  0.23691879  0.66116086    -0.14000
S525        S  0.13931463  0.19915153  0.66680065    -0.30900
H526        H  0.11188445  0.23037058  0.71797085     0.10900
S527        S  0.88279802  0.26748126  0.69659093    -0.28000
H528        H  0.91470026  0.23853730  0.64540224     0.08100
H529        H  0.13674963  0.18945837  0.53776429     0.26600
H530        H  0.17679660  0.20298875  0.69399380     0.21400
H531        H  0.87829580  0.26042671  0.72724259     0.26700
H532        H  0.96000162  0.18297747  0.67754398     0.15500
C533        C  0.89820842  0.44450974  0.66277483    -0.11800
C534        C  0.86419272  0.43676334  0.68912119     0.14800
C535        C  0.83404663  0.45350783  0.70876677     0.01700
C536        C  0.84460668  0.47767427  0.70321889    -0.16100
C537        C  0.88536923  0.48564079  0.67860901    -0.10900
C538        C  0.90797643  0.46871292  0.65693078     0.08400
C539        C  0.86784132  0.41149639  0.69750427     0.09400
S540        S  0.78800069  0.44528497  0.74303375    -0.25200
H541        H  0.82582053  0.49027910  0.71981469     0.19700
S542        S  0.95573504  0.47634426  0.62301881    -0.30900
H543        H  0.92025368  0.43158451  0.64740926     0.10000
C544        C  0.81764783  0.39495471  0.68725306     0.03200
C545        C  0.81751987  0.37196306  0.69935556    -0.13200
C546        C  0.86742867  0.36514374  0.72113529    -0.08900
C547        C  0.92053372  0.38141025  0.72988059     0.06700
C548        C  0.92003730  0.40445365  0.71791632    -0.14000
S549        S  0.75127202  0.40366610  0.66033712    -0.30900
H550        H  0.77707714  0.35943802  0.69257570     0.10900
S551        S  0.98486774  0.37397568  0.75843148    -0.28000
H552        H  0.95851795  0.41742594  0.72546792     0.08100
H553        H  0.90988436  0.49459697  0.61480813     0.26600
H554        H  0.72042494  0.38106439  0.65677201     0.21400
H555        H  0.02721577  0.39433388  0.75478589     0.26700
H556        H  0.76521985  0.42277000  0.73328297     0.15500
C557        C  0.85381279  0.69112727  0.68639177    -0.11800
C558        C  0.89625281  0.67545581  0.70257342     0.14800
C559        C  0.94447398  0.68448522  0.72430268     0.01700
C560        C  0.94639234  0.70883174  0.73033598    -0.16100
C561        C  0.90114451  0.72432425  0.71531983    -0.10900
C562        C  0.85590299  0.71543053  0.69242228     0.08400
C563        C  0.88942589  0.64989124  0.69595917     0.09400
S564        S  0.00338648  0.66610531  0.74591816    -0.25200
H565        H  0.98126687  0.71557794  0.74788764     0.19700
S566        S  0.79961451  0.73414621  0.67012728    -0.30900
H567        H  0.81806319  0.68430288  0.66922835     0.10000
C568        C  0.86204017  0.63380110  0.71741285     0.03200
C569        C  0.86719318  0.60939705  0.71195707    -0.13200
C570        C  0.89833683  0.60078161  0.68520232    -0.08900
C571        C  0.91597588  0.61727035  0.66191768     0.06700
C572        C  0.91263717  0.64155052  0.66786069    -0.14000
S573        S  0.82379627  0.64434606  0.75232515    -0.30900
H574        H  0.85146352  0.59706767  0.72960899     0.10900
S575        S  0.94761704  0.60897059  0.62490589    -0.28000
H576        H  0.93071849  0.65407817  0.65081568     0.08100
H577        H  0.84359727  0.75429623  0.67124691     0.26600
H578        H  0.80008023  0.62211547  0.76284772     0.21400
H579        H  0.89733678  0.59079333  0.62103328     0.26700
H580        H  0.00363425  0.64647763  0.72627795     0.15500
C581        C  0.63824889  0.77996862  0.77333654    -0.11800
C582        C  0.60826568  0.79458710  0.75114371     0.14800
C583        C  0.65187315  0.80739264  0.73099882     0.01700
C584        C  0.72390725  0.80358183  0.73157425    -0.16100
C585        C  0.75303750  0.78732240  0.75197299    -0.10900
C586        C  0.71033961  0.77609777  0.77381296     0.08400
C587        C  0.53243399  0.79203672  0.74559744     0.09400
S588        S  0.61782397  0.82694484  0.70220807    -0.25200
H589        H  0.75672087  0.81208796  0.71463155     0.19700
S590        S  0.74717282  0.75560777  0.80091536    -0.30900
H591        H  0.60448885  0.77015569  0.78868064     0.10000
C592        C  0.50759675  0.77647164  0.72284531     0.03200
C593        C  0.43585809  0.77229036  0.71991133    -0.13200
C594        C  0.38781465  0.78295911  0.73958464    -0.08900
C595        C  0.41300683  0.79894686  0.76211713     0.06700
C596        C  0.48498509  0.80339223  0.76472811    -0.14000
S597        S  0.56759856  0.76086590  0.69852511    -0.30900
H598        H  0.41715906  0.76012329  0.70257150     0.10900
S599        S  0.35737097  0.81288824  0.78960387    -0.28000
H600        H  0.50438671  0.81509428  0.78248469     0.08100
H601        H  0.68581778  0.75173558  0.81776628     0.26600
H602        H  0.51718405  0.74832455  0.68137335     0.21700
H603        H  0.32054736  0.79187722  0.79673648     0.26700
H604        H  0.55599518  0.83243280  0.71765369     0.15500
C605        C  0.25200205  0.67732795  0.72939625    -0.11800
C606        C  0.19693159  0.66995296  0.71053607     0.14800
C607        C  0.15337598  0.68713965  0.69692563     0.01700
C608        C  0.16603730  0.71123541  0.70285694    -0.16100
C609        C  0.22087211  0.71854985  0.72207596    -0.10900
C610        C  0.26395231  0.70123364  0.73564432     0.08400
C611        C  0.18308835  0.64420069  0.70839218     0.09400
S612        S  0.08111376  0.67993281  0.67186354    -0.25200
H613        H  0.13292370  0.72438842  0.69234104     0.19700
S614        S  0.33231737  0.70808884  0.76274436    -0.30900
H615        H  0.28465748  0.66418633  0.74023218     0.10000
C616        C  0.19129624  0.63147492  0.68118253     0.03200
C617        C  0.17023233  0.60760985  0.68007627    -0.13200
C618        C  0.14274709  0.59602849  0.70592739    -0.08900
C619        C  0.14383287  0.60819049  0.73424356     0.06700
C620        C  0.16288699  0.63220915  0.73488802    -0.14000
S621        S  0.22668122  0.64575921  0.64774971    -0.30900
H622        H  0.17189999  0.59837311  0.65850259     0.10900
S623        S  0.12009484  0.59399411  0.76977900    -0.28000
H624        H  0.16031311  0.64202014  0.75603366     0.08100
H625        H  0.29444596  0.72567061  0.77799042     0.26600
H626        H  0.23232110  0.62509514  0.63003397     0.21400
H627        H  0.12996246  0.61376495  0.78890943     0.26700
H628        H  0.07007820  0.65639732  0.68113238     0.15500
C629        C  0.46223984  0.29154615  0.73335573    -0.11800
C630        C  0.48735838  0.29434788  0.76327601     0.14800
C631        C  0.43880379  0.29774022  0.78702874     0.01700
C632        C  0.36766932  0.29988012  0.78013731    -0.16100
C633        C  0.34339822  0.29844222  0.75004053    -0.10900
C634        C  0.39097384  0.29331239  0.72658000     0.08400
C635        C  0.56401808  0.29739620  0.76803021     0.09400
S636        S  0.46459967  0.30050820  0.82640258    -0.25200
H637        H  0.33140950  0.30385523  0.79825089     0.19700
S638        S  0.36408495  0.28970679  0.68744680    -0.30900
H639        H  0.49875674  0.28902622  0.71490041     0.10000
C640        C  0.61243355  0.27995820  0.75938140     0.03200
C641        C  0.68427724  0.28546686  0.75970090    -0.13200
C642        C  0.70861216  0.30801877  0.76862557    -0.08900
C643        C  0.66048930  0.32456657  0.77999600     0.06700
C644        C  0.58905535  0.31929559  0.77899735    -0.14000
S645        S  0.58289408  0.25090367  0.74731014    -0.30900
H646        H  0.72121408  0.27268985  0.75126883     0.10900
S647        S  0.68695052  0.35282970  0.79578192    -0.28000
H648        H  0.55247308  0.33269614  0.78607444     0.08100
H649        H  0.29595057  0.28168824  0.69392287     0.26600
H650        H  0.64942692  0.24098595  0.74395774     0.21400
H651        H  0.75288785  0.34533206  0.80585548     0.26700
H652        H  0.52481985  0.28665829  0.82392035     0.15500
C653        C  0.12090301  0.39345560  0.69451889    -0.11800
C654        C  0.17385663  0.40973220  0.70265316     0.14800
C655        C  0.23687665  0.40128956  0.71498156     0.01700
C656        C  0.24397529  0.37710791  0.72064167    -0.16100
C657        C  0.19031844  0.36077224  0.71349161    -0.10900
C658        C  0.12923392  0.36906453  0.69897622     0.08400
C659        C  0.16025755  0.43543180  0.70022717     0.09400
S660        S  0.30969240  0.42050986  0.72461583    -0.25200
H661        H  0.29141696  0.37116348  0.73159253     0.19700
S662        S  0.06098436  0.34958172  0.68499719    -0.30900
H663        H  0.07253073  0.39982260  0.68481101     0.10000
C664        C  0.14601585  0.44630821  0.67208123     0.03200
C665        C  0.13013631  0.47045443  0.67135434    -0.13200
C666        C  0.12774552  0.48403444  0.69821860    -0.08900
C667        C  0.14666161  0.47339003  0.72617720     0.06700
C668        C  0.16133071  0.44912936  0.72688245    -0.14000
S669        S  0.14789357  0.42953807  0.63704042    -0.30900
H670        H  0.11631510  0.47847224  0.64981720     0.10900
S671        S  0.15369707  0.49039731  0.76100162    -0.28000
H672        H  0.17324469  0.44062096  0.74834953     0.08100
H673        H  0.10611936  0.33109670  0.67707940     0.26600
H674        H  0.12180639  0.44743196  0.61795935     0.21400
H675        H  0.17206466  0.47156416  0.78032427     0.26700
H676        H  0.29719926  0.43731087  0.70161997     0.15500
loop_ 
_geom_bond_atom_site_label_1 
_geom_bond_atom_site_label_2 
_geom_bond_distance 
_geom_bond_site_symmetry_2 
_ccdc_geom_bond_type 
C1            N2   1.359       .  A
C1            N6   1.355       .  A
C1          C295   1.477       .  S
N2            C3   1.364       .  A
C3            N4   1.358       .  A
C3           C46   1.477       .  S
N4            C5   1.359       .  A
C5            N6   1.358       .  A
C5          C319   1.483       .  S
C7            N8   1.356       .  A
C7           N12   1.353       .  A
C7          C256   1.482       .  S
N8            C9   1.361       .  A
C9           N10   1.360       .  A
C9           C53   1.470       .  S
N10          C11   1.360       .  A
C11          N12   1.353       .  A
C11         C271   1.474       .  S
C13          N14   1.357       .  A
C13          N18   1.352       .  A
C13         C247   1.468       .  S
N14          C15   1.363       .  A
C15          N16   1.359       .  A
C15          C58   1.472   1_655  S
N16          C17   1.359       .  A
C17          N18   1.354       .  A
C17         C223   1.472       .  S
O19         Ni27   1.911   1_655  S
O19          C29   1.281       .  A
O20         Ni27   1.909       .  S
O20          C30   1.280       .  A
O21         Ni27   1.905       .  S
O21          C31   1.277       .  A
O22         Ni27   1.905   1_655  S
O22          C32   1.281       .  A
O23         Ni28   1.918   1_655  S
O23          C32   1.280       .  A
O24         Ni28   1.915       .  S
O24          C31   1.282       .  A
O25         Ni28   1.909       .  S
O25          C30   1.280       .  A
O26         Ni28   1.911   1_655  S
O26          C29   1.279       .  A
Ni27        Ni28   2.380       .  S
C29         C232   1.489       .  S
C30         C328   1.481       .  S
C31         C280   1.487       .  S
C32         C199   1.487       .  S
C33          N34   1.355       .  A
C33          N38   1.359       .  A
C33         C304   1.481       .  S
N34          C35   1.357       .  A
C35          N36   1.360       .  A
C35         C208   1.479       .  S
N36          C37   1.359       .  A
C37          N38   1.363       .  A
C37          C41   1.476       .  S
C39          C40   1.535   1_455  S
C39          C45   1.548       .  S
C39          C43   1.532       .  S
C39         C151   1.532       .  S
C40          H47   1.086       .  S
C40          C41   1.361       .  D
C41          C42   1.540   1_655  S
C42          C46   1.541       .  S
C42          C44   1.539       .  S
C42          H48   1.111       .  S
C43          H49   1.086       .  S
C43          C44   1.361       .  D
C44         C184   1.474       .  S
C45          H50   1.079       .  S
C45          C46   1.365       .  D
C51          C52   1.536       .  S
C51          C57   1.537       .  S
C51          C55   1.544       .  S
C51         C103   1.533       .  S
C52          H59   1.086       .  S
C52          C53   1.363       .  D
C53          C54   1.535       .  S
C54          C58   1.538       .  S
C54          C56   1.534       .  S
C54          H60   1.111       .  S
C55          H61   1.080       .  S
C55          C56   1.364       .  D
C56         C127   1.468       .  S
C57          H62   1.087   1_455  S
C57          C58   1.362       .  D
C63          N68   1.355       .  A
C63         N402   1.355       .  A
C63         C160   1.468       .  S
N64          C65   1.356       .  A
N64         C401   1.356   1_554  A
C65          N66   1.358       .  A
C65         C175   1.477       .  S
N66          C67   1.357       .  A
C67         N406   1.358   1_554  A
C67          C88   1.473       .  S
N68         C405   1.357       .  A
C69          N70   1.356       .  A
C69         N412   1.354       .  A
C69         C112   1.468       .  S
N70         C409   1.359       .  A
C71          N72   1.359       .  A
C71         N408   1.360   1_554  A
C71          C79   1.481       .  S
N72          C73   1.358       .  A
C73          N74   1.353   1_554  A
C73         C136   1.473       .  S
N74         C407   1.353       .  A
C75          C76   1.401   1_655  A
C75          C80   1.401   1_545  A
C75          H85   1.083       .  S
C76          C81   1.474   1_455  S
C76         C415   1.410   1_554  A
C77          C78   1.395   1_545  A
C77         C414   1.410       .  A
C77          S82   1.806       .  S
C78         C417   1.405       .  A
C78          H83   1.083       .  S
C79          C80   1.418   1_455  A
C79         C416   1.405   1_554  A
C80          S84   1.803       .  S
C81          C90   1.400   1_655  A
C81         C424   1.407   1_554  A
S82          H98   1.405       .  S
S84          H95   1.407       .  S
C86          C87   1.400       .  A
C86         C419   1.407       .  A
C86          S91   1.807       .  S
C87         C426   1.405   1_655  A
C87          H92   1.083       .  S
C88          C89   1.415       .  A
C88         C425   1.404   1_454  A
C89          C90   1.398       .  A
C89          S93   1.803       .  S
C90          H94   1.084       .  S
S91          H96   1.407       .  S
S93          H97   1.407       .  S
C99         C100   1.397       .  A
C99         C104   1.400       .  A
C99         H109   1.082       .  S
C100        C105   1.475       .  S
C100        C101   1.406       .  A
C101        C102   1.397       .  A
C101        S106   1.806       .  S
C102        C103   1.413       .  A
C102        H107   1.074       .  S
C103        C104   1.424       .  A
C104        S108   1.812       .  S
C105        C110   1.410       .  A
C105        C114   1.400       .  A
S106        H122   1.405       .  S
S108        H119   1.407       .  S
C110        C111   1.401       .  A
C110        S115   1.807   1_455  S
C111        C112   1.402       .  A
C111        H116   1.083   1_455  S
C112        C113   1.412       .  A
C113        C114   1.395       .  A
C113        S117   1.804       .  S
C114        H118   1.084       .  S
S115        H120   1.407       .  S
S117        H121   1.407       .  S
C123        C124   1.402       .  A
C123        C128   1.398       .  A
C123        H133   1.084       .  S
C124        C129   1.470       .  S
C124        C125   1.412       .  A
C125        C126   1.394       .  A
C125        S130   1.805   1_455  S
C126        C127   1.400       .  A
C126        H131   1.085   1_455  S
C127        C128   1.410       .  A
C128        S132   1.801       .  S
C129        C134   1.408       .  A
C129        C138   1.398       .  A
S130        H146   1.402       .  S
S132        H143   1.406       .  S
C134        C135   1.399       .  A
C134        S139   1.807       .  S
C135        C136   1.404       .  A
C135        H140   1.083       .  S
C136        C137   1.417       .  A
C137        C138   1.395       .  A
C137        S141   1.803   1_455  S
C138        H142   1.084       .  S
S139        H144   1.407       .  S
S141        H145   1.407       .  S
C147        C148   1.397   1_655  A
C147        C152   1.400       .  A
C147        H157   1.082       .  S
C148        C153   1.472       .  S
C148        C149   1.405       .  A
C149        C150   1.394       .  A
C149        S154   1.806       .  S
C150        C151   1.412       .  A
C150        H155   1.070       .  S
C151        C152   1.426   1_455  A
C152        S156   1.814       .  S
C153        C158   1.408   1_455  A
C153        C162   1.401       .  A
S154        H170   1.406       .  S
S156        H167   1.406       .  S
C158        C159   1.399       .  A
C158        S163   1.807       .  S
C159        C160   1.402   1_655  A
C159        H164   1.083       .  S
C160        C161   1.413       .  A
C161        C162   1.397       .  A
C161        S165   1.804       .  S
C162        H166   1.084       .  S
S163        H168   1.407       .  S
S165        H169   1.407       .  S
C171        C172   1.400       .  A
C171        C176   1.396       .  A
C171        H181   1.085       .  S
C172        C177   1.471       .  S
C172        C173   1.413   1_455  A
C173        C174   1.398       .  A
C173        S178   1.808       .  S
C174        C175   1.405   1_655  A
C174        H179   1.084       .  S
C175        C176   1.415       .  A
C176        S180   1.803       .  S
C177        C182   1.407       .  A
C177        C186   1.402   1_455  A
S178        H194   1.402       .  S
S180        H191   1.408       .  S
C182        C183   1.398       .  A
C182        S187   1.807       .  S
C183        C184   1.403       .  A
C183        H188   1.083       .  S
C184        C185   1.411   1_455  A
C185        C186   1.399       .  A
C185        S189   1.800       .  S
C186        H190   1.084       .  S
S187        H192   1.407       .  S
S189        H193   1.407       .  S
C195        C196   1.399       .  A
C195        C200   1.400       .  A
C195        H205   1.084       .  S
C196        C201   1.476       .  S
C196        C197   1.410       .  A
C197        C198   1.397       .  A
C197        S202   1.805       .  S
C198        C199   1.407       .  A
C198        H203   1.084       .  S
C199        C200   1.421       .  A
C200        S204   1.801       .  S
C201        C206   1.405       .  A
C201        C210   1.402       .  A
S202        H218   1.403       .  S
S204        H215   1.407       .  S
C206        C207   1.402       .  A
C206        S211   1.806       .  S
C207        C208   1.407       .  A
C207        H212   1.083       .  S
C208        C209   1.414       .  A
C209        C210   1.402       .  A
C209        S213   1.808       .  S
C210        H214   1.083       .  S
S211        H216   1.407       .  S
S213        H217   1.407   1_655  S
C219        C220   1.400       .  A
C219        C224   1.397       .  A
C219        H229   1.084       .  S
C220        C225   1.476       .  S
C220        C221   1.416       .  A
C221        C222   1.398       .  A
C221        S226   1.807   1_655  S
C222        C223   1.402       .  A
C222        H227   1.084       .  S
C223        C224   1.414       .  A
C224        S228   1.804       .  S
C225        C230   1.406       .  A
C225        C234   1.397       .  A
S226        H242   1.403       .  S
S228        H239   1.407       .  S
C230        C231   1.402       .  A
C230        S235   1.806       .  S
C231        C232   1.410       .  A
C231        H236   1.083       .  S
C232        C233   1.422       .  A
C233        C234   1.397       .  A
C233        S237   1.802       .  S
C234        H238   1.084       .  S
S235        H240   1.407       .  S
S237        H241   1.408       .  S
C243        C244   1.402       .  A
C243        C248   1.402       .  A
C243        H253   1.083       .  S
C244        C249   1.478       .  S
C244        C245   1.412       .  A
C245        C246   1.400       .  A
C245        S250   1.803       .  S
C246        C247   1.401       .  A
C246        H251   1.084       .  S
C247        C248   1.408       .  A
C248        S252   1.806       .  S
C249        C254   1.409       .  A
C249        C258   1.402       .  A
S250        H266   1.406       .  S
S252        H263   1.407       .  S
C254        C255   1.398       .  A
C254        S259   1.810       .  S
C255        C256   1.405       .  A
C255        H260   1.083       .  S
C256        C257   1.417       .  A
C257        C258   1.403       .  A
C257        S261   1.802       .  S
C258        H262   1.084       .  S
S259        H264   1.406       .  S
S261        H265   1.407       .  S
C267        C268   1.398       .  A
C267        C272   1.392       .  A
C267        H277   1.085       .  S
C268        C273   1.475       .  S
C268        C269   1.417       .  A
C269        C270   1.401       .  A
C269        S274   1.808       .  S
C270        C271   1.403       .  A
C270        H275   1.084       .  S
C271        C272   1.416       .  A
C272        S276   1.805       .  S
C273        C278   1.404       .  A
C273        C282   1.398       .  A
S274        H290   1.402       .  S
S276        H287   1.407       .  S
C278        C279   1.401       .  A
C278        S283   1.805       .  S
C279        C280   1.410       .  A
C279        H284   1.082       .  S
C280        C281   1.422       .  A
C281        C282   1.398       .  A
C281        S285   1.812       .  S
C282        H286   1.083       .  S
S283        H288   1.407       .  S
S285        H289   1.407       .  S
C291        C292   1.406       .  A
C291        C296   1.402       .  A
C291        H301   1.084       .  S
C292        C297   1.491       .  S
C292        C293   1.416       .  A
C293        C294   1.403       .  A
C293        S298   1.803       .  S
C294        C295   1.402       .  A
C294        H299   1.084       .  S
C295        C296   1.412       .  A
C296        S300   1.803       .  S
C297        C302   1.413       .  A
C297        C306   1.404       .  A
S298        H314   1.406       .  S
S300        H311   1.407       .  S
C302        C303   1.408       .  A
C302        S307   1.805       .  S
C303        C304   1.405       .  A
C303        H308   1.083       .  S
C304        C305   1.413       .  A
C305        C306   1.398       .  A
C305        S309   1.804       .  S
C306        H310   1.084       .  S
S307        H312   1.407       .  S
S309        H313   1.407       .  S
C315        C316   1.405       .  A
C315        C320   1.401       .  A
C315        H325   1.084       .  S
C316        C321   1.478       .  S
C316        C317   1.409       .  A
C317        C318   1.393       .  A
C317        S322   1.805       .  S
C318        C319   1.407       .  A
C318        H323   1.083       .  S
C319        C320   1.416       .  A
C320        S324   1.803       .  S
C321        C326   1.407       .  A
C321        C330   1.402       .  A
S322        H338   1.407       .  S
S324        H335   1.407       .  S
C326        C327   1.400       .  A
C326        S331   1.807       .  S
C327        C328   1.409       .  A
C327        H332   1.082       .  S
C328        C329   1.415       .  A
C329        C330   1.400       .  A
C329        S333   1.809       .  S
C330        H334   1.083       .  S
S331        H336   1.407       .  S
S333        H337   1.407       .  S
C339        N340   1.359       .  A
C339        N344   1.355       .  A
C339        C633   1.476       .  S
N340        C341   1.363       .  A
C341        N342   1.357       .  A
C341        C384   1.476       .  S
N342        C343   1.359       .  A
C343        N344   1.358       .  A
C343        C657   1.481       .  S
C345        N346   1.357       .  A
C345        N350   1.353       .  A
C345        C594   1.484       .  S
N346        C347   1.361       .  A
C347        N348   1.359       .  A
C347        C391   1.469       .  S
N348        C349   1.359       .  A
C349        N350   1.353       .  A
C349        C609   1.474       .  S
C351        N352   1.357       .  A
C351        N356   1.352       .  A
C351        C585   1.468       .  S
N352        C353   1.363       .  A
C353        N354   1.359       .  A
C353        C396   1.471   1_655  S
N354        C355   1.358       .  A
C355        N356   1.354       .  A
C355        C561   1.470       .  S
O357       Ni365   1.909       .  S
O357        C367   1.281       .  A
O358       Ni365   1.908   1_455  S
O358        C368   1.279       .  A
O359       Ni365   1.906   1_455  S
O359        C369   1.278       .  A
O360       Ni365   1.905       .  S
O360        C370   1.281       .  A
O361       Ni366   1.915   1_655  S
O361        C370   1.279       .  A
O362       Ni366   1.912       .  S
O362        C369   1.281       .  A
O363       Ni366   1.909       .  S
O363        C368   1.281       .  A
O364       Ni366   1.911   1_655  S
O364        C367   1.279       .  A
Ni365      Ni366   2.381   1_655  S
C367        C570   1.487       .  S
C368        C666   1.481       .  S
C369        C618   1.487       .  S
C370        C537   1.485       .  S
C371        N372   1.355       .  A
C371        N376   1.359       .  A
C371        C642   1.480       .  S
N372        C373   1.356       .  A
C373        N374   1.359       .  A
C373        C546   1.477       .  S
N374        C375   1.358       .  A
C375        N376   1.364       .  A
C375        C379   1.475       .  S
C377        C378   1.535   1_455  S
C377        C383   1.548       .  S
C377        C381   1.534       .  S
C377        C489   1.533       .  S
C378        H385   1.087       .  S
C378        C379   1.361       .  D
C379        C380   1.540   1_655  S
C380        C384   1.540       .  S
C380        C382   1.538       .  S
C380        H386   1.111       .  S
C381        H387   1.086       .  S
C381        C382   1.362       .  D
C382        C522   1.474       .  S
C383        H388   1.079       .  S
C383        C384   1.365       .  D
C389        C390   1.534       .  S
C389        C395   1.537       .  S
C389        C393   1.544       .  S
C389        C441   1.531       .  S
C390        H397   1.087       .  S
C390        C391   1.362       .  D
C391        C392   1.536       .  S
C392        C396   1.538       .  S
C392        C394   1.536       .  S
C392        H398   1.111       .  S
C393        H399   1.080       .  S
C393        C394   1.364       .  D
C394        C465   1.472       .  S
C395        H400   1.087   1_455  S
C395        C396   1.363       .  D
C401        N406   1.356       .  A
C401        C498   1.470       .  S
N402        C403   1.356       .  A
C403        N404   1.358       .  A
C403        C513   1.475       .  S
N404        C405   1.358       .  A
C405        C426   1.476       .  S
C407        N408   1.356       .  A
C407        C450   1.466       .  S
C409        N410   1.359       .  A
C409        C417   1.483       .  S
N410        C411   1.359       .  A
C411        N412   1.354       .  A
C411        C474   1.476       .  S
C413        C414   1.401   1_655  A
C413        C418   1.401   1_545  A
C413        H423   1.084       .  S
C414        C419   1.475   1_455  S
C415        C416   1.394   1_545  A
C415        S420   1.806       .  S
C416        H421   1.083       .  S
C417        C418   1.418   1_455  A
C418        S422   1.803       .  S
C419        C428   1.400   1_655  A
S420        H436   1.405       .  S
S422        H433   1.407       .  S
C424        C425   1.400       .  A
C424        S429   1.806       .  S
C425        H430   1.083       .  S
C426        C427   1.415       .  A
C427        C428   1.398       .  A
C427        S431   1.803       .  S
C428        H432   1.084       .  S
S429        H434   1.407       .  S
S431        H435   1.407       .  S
C437        C438   1.398       .  A
C437        C442   1.399       .  A
C437        H447   1.082       .  S
C438        C443   1.472       .  S
C438        C439   1.405       .  A
C439        C440   1.395       .  A
C439        S444   1.806       .  S
C440        C441   1.413       .  A
C440        H445   1.073       .  S
C441        C442   1.424       .  A
C442        S446   1.812       .  S
C443        C448   1.410       .  A
C443        C452   1.400       .  A
S444        H460   1.406       .  S
S446        H457   1.407       .  S
C448        C449   1.401       .  A
C448        S453   1.807   1_455  S
C449        C450   1.402       .  A
C449        H454   1.083   1_455  S
C450        C451   1.412       .  A
C451        C452   1.394       .  A
C451        S455   1.804       .  S
C452        H456   1.084       .  S
S453        H458   1.407       .  S
S455        H459   1.407       .  S
C461        C462   1.401       .  A
C461        C466   1.398       .  A
C461        H471   1.084       .  S
C462        C467   1.470       .  S
C462        C463   1.411       .  A
C463        C464   1.394       .  A
C463        S468   1.805   1_455  S
C464        C465   1.402       .  A
C464        H469   1.085   1_455  S
C465        C466   1.410       .  A
C466        S470   1.799       .  S
C467        C472   1.407       .  A
C467        C476   1.397       .  A
S468        H484   1.404       .  S
S470        H481   1.406       .  S
C472        C473   1.400       .  A
C472        S477   1.807       .  S
C473        C474   1.404       .  A
C473        H478   1.083       .  S
C474        C475   1.418       .  A
C475        C476   1.396       .  A
C475        S479   1.803   1_455  S
C476        H480   1.085       .  S
S477        H482   1.407       .  S
S479        H483   1.407       .  S
C485        C486   1.397   1_655  A
C485        C490   1.401       .  A
C485        H495   1.082       .  S
C486        C491   1.473       .  S
C486        C487   1.405       .  A
C487        C488   1.395       .  A
C487        S492   1.805       .  S
C488        C489   1.412       .  A
C488        H493   1.071       .  S
C489        C490   1.426   1_455  A
C490        S494   1.813       .  S
C491        C496   1.408   1_455  A
C491        C500   1.401       .  A
S492        H508   1.406       .  S
S494        H505   1.406       .  S
C496        C497   1.399       .  A
C496        S501   1.807       .  S
C497        C498   1.402   1_655  A
C497        H502   1.083       .  S
C498        C499   1.414       .  A
C499        C500   1.398       .  A
C499        S503   1.804       .  S
C500        H504   1.084       .  S
S501        H506   1.406       .  S
S503        H507   1.407       .  S
C509        C510   1.399       .  A
C509        C514   1.396       .  A
C509        H519   1.084       .  S
C510        C515   1.472       .  S
C510        C511   1.411   1_455  A
C511        C512   1.398       .  A
C511        S516   1.804       .  S
C512        C513   1.404   1_655  A
C512        H517   1.084       .  S
C513        C514   1.416       .  A
C514        S518   1.803       .  S
C515        C520   1.407       .  A
C515        C524   1.402   1_455  A
S516        H532   1.405       .  S
S518        H529   1.407       .  S
C520        C521   1.398       .  A
C520        S525   1.807       .  S
C521        C522   1.402       .  A
C521        H526   1.083       .  S
C522        C523   1.411   1_455  A
C523        C524   1.399       .  A
C523        S527   1.800       .  S
C524        H528   1.084       .  S
S525        H530   1.407       .  S
S527        H531   1.407       .  S
C533        C534   1.398       .  A
C533        C538   1.399       .  A
C533        H543   1.084       .  S
C534        C539   1.474       .  S
C534        C535   1.410       .  A
C535        C536   1.397       .  A
C535        S540   1.806       .  S
C536        C537   1.407       .  A
C536        H541   1.084       .  S
C537        C538   1.421       .  A
C538        S542   1.801       .  S
C539        C544   1.404       .  A
C539        C548   1.402       .  A
S540        H556   1.404       .  S
S542        H553   1.408       .  S
C544        C545   1.401       .  A
C544        S549   1.806       .  S
C545        C546   1.407       .  A
C545        H550   1.083       .  S
C546        C547   1.413       .  A
C547        C548   1.402       .  A
C547        S551   1.808       .  S
C548        H552   1.083       .  S
S549        H554   1.407       .  S
S551        H555   1.407   1_655  S
C557        C558   1.400       .  A
C557        C562   1.396       .  A
C557        H567   1.084       .  S
C558        C563   1.475       .  S
C558        C559   1.416       .  A
C559        C560   1.398       .  A
C559        S564   1.808   1_655  S
C560        C561   1.401       .  A
C560        H565   1.084       .  S
C561        C562   1.413       .  A
C562        S566   1.804       .  S
C563        C568   1.407       .  A
C563        C572   1.397       .  A
S564        H580   1.403       .  S
S566        H577   1.407       .  S
C568        C569   1.401       .  A
C568        S573   1.806       .  S
C569        C570   1.410       .  A
C569        H574   1.083       .  S
C570        C571   1.421       .  A
C571        C572   1.396       .  A
C571        S575   1.802       .  S
C572        H576   1.084       .  S
S573        H578   1.407       .  S
S575        H579   1.408       .  S
C581        C582   1.402       .  A
C581        C586   1.402       .  A
C581        H591   1.083       .  S
C582        C587   1.478       .  S
C582        C583   1.412       .  A
C583        C584   1.400       .  A
C583        S588   1.803       .  S
C584        C585   1.401       .  A
C584        H589   1.084       .  S
C585        C586   1.409       .  A
C586        S590   1.806       .  S
C587        C592   1.408       .  A
C587        C596   1.402       .  A
S588        H604   1.406       .  S
S590        H601   1.407       .  S
C592        C593   1.397       .  A
C592        S597   1.809       .  S
C593        C594   1.406       .  A
C593        H598   1.082       .  S
C594        C595   1.418       .  A
C595        C596   1.403       .  A
C595        S599   1.801       .  S
C596        H600   1.083       .  S
S597        H602   1.406       .  S
S599        H603   1.407       .  S
C605        C606   1.398       .  A
C605        C610   1.392       .  A
C605        H615   1.085       .  S
C606        C611   1.476       .  S
C606        C607   1.417       .  A
C607        C608   1.401       .  A
C607        S612   1.808       .  S
C608        C609   1.403       .  A
C608        H613   1.084       .  S
C609        C610   1.416       .  A
C610        S614   1.805       .  S
C611        C616   1.405       .  A
C611        C620   1.399       .  A
S612        H628   1.402       .  S
S614        H625   1.407       .  S
C616        C617   1.401       .  A
C616        S621   1.805       .  S
C617        C618   1.410       .  A
C617        H622   1.082       .  S
C618        C619   1.420       .  A
C619        C620   1.398       .  A
C619        S623   1.811       .  S
C620        H624   1.083       .  S
S621        H626   1.407       .  S
S623        H627   1.406       .  S
C629        C630   1.406       .  A
C629        C634   1.401       .  A
C629        H639   1.084       .  S
C630        C635   1.491       .  S
C630        C631   1.416       .  A
C631        C632   1.402       .  A
C631        S636   1.803       .  S
C632        C633   1.402       .  A
C632        H637   1.084       .  S
C633        C634   1.411       .  A
C634        S638   1.803       .  S
C635        C640   1.414       .  A
C635        C644   1.404       .  A
S636        H652   1.406       .  S
S638        H649   1.407       .  S
C640        C641   1.408       .  A
C640        S645   1.805       .  S
C641        C642   1.404       .  A
C641        H646   1.083       .  S
C642        C643   1.413       .  A
C643        C644   1.398       .  A
C643        S647   1.804       .  S
C644        H648   1.084       .  S
S645        H650   1.407       .  S
S647        H651   1.407       .  S
C653        C654   1.405       .  A
C653        C658   1.400       .  A
C653        H663   1.084       .  S
C654        C659   1.479       .  S
C654        C655   1.410       .  A
C655        C656   1.394       .  A
C655        S660   1.805       .  S
C656        C657   1.406       .  A
C656        H661   1.084       .  S
C657        C658   1.415       .  A
C658        S662   1.803       .  S
C659        C664   1.407       .  A
C659        C668   1.403       .  A
S660        H676   1.406       .  S
S662        H673   1.407       .  S
C664        C665   1.399       .  A
C664        S669   1.807       .  S
C665        C666   1.408       .  A
C665        H670   1.082       .  S
C666        C667   1.415       .  A
C667        C668   1.400       .  A
C667        S671   1.809       .  S
C668        H672   1.083       .  S
S669        H674   1.407       .  S
S671        H675   1.406       .  S
