geometry optimzed in LAMMPS
_audit_creation_date              2020-11-30 
_audit_creation_method            'lammps2cif' 
_symmetry_space_group_name_H-M    'P1' 
_symmetry_Int_Tables_number       1 
_symmetry_cell_setting            triclinic 
loop_ 
_symmetry_equiv_pos_as_xyz 
  x,y,z 
_cell_length_a                    26.463565087643165 
_cell_length_b                    27.01973465067402 
_cell_length_c                    26.76276088528354 
_cell_angle_alpha                 90.69711573812579 
_cell_angle_beta                  90.79393040662725 
_cell_angle_gamma                 89.92467128192884 
loop_ 
_atom_site_label 
_atom_site_type_symbol 
_atom_site_fract_x 
_atom_site_fract_y 
_atom_site_fract_z 
_atom_site_charge 
O1          O  0.24681992  0.70394815  0.47861698    -0.85570
O2          O  0.16682928  0.72472897  0.54191772    -0.82610
C3          C  0.13781303  0.75137255  0.56765098     0.97900
O4          O  0.13690734  0.79890350  0.55957315    -0.82650
O5          O  0.20968418  0.88535724  0.55118859    -0.85290
C6          C  0.25387637  0.88317673  0.57363439     1.02420
O7          O  0.28445801  0.84883116  0.56275454    -0.78050
O8          O  0.28780965  0.75059036  0.53341092    -0.78240
C9          C  0.28500760  0.71231531  0.50629694     1.02370
O10         O  0.20850892  0.77427523  0.41065854    -0.85560
O11         O  0.14429627  0.70612586  0.44854141    -0.82630
C12         C  0.11110446  0.73941245  0.44079271     0.97920
O13         O  0.12010763  0.78727288  0.45346582    -0.82650
O14         O  0.20178683  0.87633524  0.43847156    -0.85260
C15         C  0.24840790  0.89144605  0.43238228     1.02390
O16         O  0.28196231  0.87675735  0.46259495    -0.78080
O17         O  0.28891875  0.78014806  0.43099602    -0.78230
C18         C  0.25413940  0.77215395  0.39859447     1.02350
Cr19       Cr  0.18953161  0.75095715  0.47740382     1.93740
Cr20       Cr  0.16976420  0.83762769  0.50056050     1.93210
Cr21       Cr  0.28318815  0.81265115  0.49830339     1.39100
O22         O  0.21947168  0.79919039  0.50224689    -1.23310
O23         O  0.73060346  0.17342686  0.44935941    -0.85570
O24         O  0.74940263  0.08828940  0.49723067    -0.82610
C25         C  0.77970319  0.07787619  0.46285951     0.97900
O26         O  0.82475857  0.09724057  0.46600986    -0.82650
O27         O  0.90170685  0.19008212  0.46550867    -0.85290
C28         C  0.90563677  0.23656578  0.44672108     1.02420
O29         O  0.87265818  0.26772203  0.46034834    -0.78050
O30         O  0.81061192  0.18900509  0.43706371    -0.78240
C31         C  0.76839870  0.17333142  0.42101479     1.02370
O32         O  0.71893255  0.22618079  0.54229890    -0.85560
O33         O  0.74562239  0.13263320  0.59111852    -0.82630
C34         C  0.77654229  0.09711367  0.59984648     0.97920
O35         O  0.82084537  0.09667923  0.57749000    -0.82650
O36         O  0.89249961  0.18967277  0.57740604    -0.85260
C37         C  0.88992178  0.23782495  0.58300048     1.02390
O38         O  0.85659186  0.26036679  0.55807980    -0.78080
O39         O  0.77307011  0.26817223  0.49638835    -0.78230
C40         C  0.73112836  0.26441931  0.51769463     1.02350
Cr41       Cr  0.73993612  0.15805267  0.52173064     1.93740
Cr42       Cr  0.85703419  0.14344245  0.52290993     1.93210
Cr43       Cr  0.83129543  0.22417956  0.49768879     1.39100
O44         O  0.80345934  0.17876623  0.52711449    -1.23310
O45         O  0.79139143  0.71024150  0.45370267    -0.85570
O46         O  0.89133231  0.71697033  0.47138935    -0.82610
C47         C  0.90263350  0.74313893  0.43440550     0.97900
O48         O  0.89097808  0.79006085  0.43523642    -0.82650
O49         O  0.80701282  0.87606955  0.44354695    -0.85290
C50         C  0.75746322  0.88180540  0.43081100     1.02420
O51         O  0.72523404  0.85329373  0.44964146    -0.78050
O52         O  0.79385786  0.78449995  0.42210679    -0.78240
C53         C  0.78945966  0.73872547  0.41648454     1.02370
O54         O  0.76865640  0.72316052  0.55540454    -0.85560
O55         O  0.87581539  0.73262110  0.57348094    -0.82630
C56         C  0.91631920  0.75765978  0.57056904     0.97920
O57         O  0.91686251  0.79756532  0.54288140    -0.82650
O58         O  0.83152904  0.87621962  0.55423677    -0.85260
C59         C  0.78434114  0.87934914  0.56803515     1.02390
O60         O  0.75240930  0.85150086  0.54647999    -0.78080
O61         O  0.72359404  0.76497236  0.49973842    -0.78230
C62         C  0.72682902  0.73236091  0.53325269     1.02350
Cr63       Cr  0.83075800  0.72426214  0.51472706     1.93740
Cr64       Cr  0.86162882  0.83302913  0.49518150     1.93210
Cr65       Cr  0.77317742  0.81583124  0.48488486     1.39100
O66         O  0.82114602  0.78792370  0.51154179    -1.23310
O67         O  0.59725398  0.25210989  0.24225602    -0.85570
O68         O  0.57035266  0.29895291  0.15524658    -0.82610
C69         C  0.58514449  0.26266922  0.12725590     0.97900
O70         O  0.56943185  0.21642569  0.13656119    -0.82650
O71         O  0.57376083  0.13031950  0.21628834    -0.85290
C72         C  0.57554299  0.11484561  0.26222605     1.02420
O73         O  0.54651680  0.13466828  0.29442405    -0.78050
O74         O  0.55925304  0.23491391  0.31270435    -0.78240
C75         C  0.59602664  0.25178254  0.28989243     1.02370
O76         O  0.51235686  0.30893552  0.25358611    -0.85560
O77         O  0.47006395  0.27769510  0.15980016    -0.82630
C78         C  0.44540059  0.24813978  0.13137637     0.97920
O79         O  0.45650136  0.20140935  0.13543259    -0.82650
O80         O  0.46658501  0.11845042  0.21109814    -0.85260
C81         C  0.44189067  0.11799416  0.25264092     1.02390
O82         O  0.44273907  0.15479747  0.28155895    -0.78080
O83         O  0.46041774  0.25672768  0.29028002    -0.78230
C84         C  0.48346228  0.29799128  0.28977153     1.02350
Cr85       Cr  0.53339322  0.25969831  0.20096331     1.93740
Cr86       Cr  0.51597421  0.16823068  0.17791516     1.93210
Cr87       Cr  0.50195133  0.19635097  0.29047745     1.39100
O88         O  0.50802486  0.20919454  0.22666941    -1.23310
O89         O  0.80484857  0.40676591  0.19561680    -0.85570
O90         O  0.86452997  0.43726444  0.27728528    -0.82610
C91         C  0.89788458  0.42421124  0.24717704     0.97900
O92         O  0.89470365  0.43945960  0.19896552    -0.82650
O93         O  0.81757945  0.43441351  0.10452206    -0.85290
C94         C  0.77232249  0.43410543  0.08510884     1.02420
O95         O  0.74386258  0.47015108  0.09442500    -0.78050
O96         O  0.72508340  0.42453058  0.18049819    -0.78240
C97         C  0.76120327  0.39410566  0.17926701     1.02370
O98         O  0.77003482  0.46584119  0.27278413    -0.85560
O99         O  0.85416816  0.53294899  0.26179739    -0.82630
C100        C  0.88573778  0.55761903  0.23649538     0.97920
O101        O  0.88621531  0.54938939  0.18855254    -0.82650
O102        O  0.81176144  0.54334989  0.09976085    -0.85260
C103        C  0.76808905  0.56678282  0.10174191     1.02390
O104        O  0.73947230  0.56184119  0.13924659    -0.78080
O105        O  0.71542301  0.51362549  0.23222677    -0.78230
C106        C  0.72800456  0.48648485  0.26890647     1.02350
Cr107      Cr  0.82632992  0.47022898  0.22927589     1.93740
Cr108      Cr  0.85017286  0.49252059  0.14766298     1.93210
Cr109      Cr  0.73424537  0.49422249  0.16395675     1.39100
O110        O  0.79784564  0.49831121  0.18333468    -1.23310
O111        O  0.50563189  0.70987087  0.21015443    -0.85570
O112        O  0.44457781  0.74070450  0.13571279    -0.82610
C113        C  0.42612662  0.76788119  0.10267547     0.97900
O114        O  0.43834822  0.81513942  0.10547575    -0.82650
O115        O  0.44228050  0.89572800  0.19568875    -0.85290
C116        C  0.42385614  0.89340649  0.24127382     1.02420
O117        O  0.43318803  0.85552363  0.26816824    -0.78050
O118        O  0.45397633  0.75234978  0.25698352    -0.78240
C119        C  0.48167866  0.71511642  0.25036714     1.02370
O120        O  0.57732023  0.78655433  0.18570013    -0.85560
O121        O  0.53964106  0.72559074  0.11010488    -0.82630
C122        C  0.56339075  0.76103159  0.09091904     0.97920
O123        O  0.55104919  0.80816288  0.10428512    -0.82650
O124        O  0.55299717  0.88847735  0.19638376    -0.85260
C125        C  0.55995347  0.89631363  0.24459809     1.02390
O126        O  0.53444218  0.87260790  0.27498687    -0.78080
O127        O  0.56196334  0.77255513  0.26282083    -0.78230
C128        C  0.59079846  0.76774466  0.22531802     1.02350
Cr129      Cr  0.50995546  0.76433360  0.16107679     1.93740
Cr130      Cr  0.49490743  0.85158125  0.15304479     1.93210
Cr131      Cr  0.49465455  0.81214643  0.26268617     1.39100
O132        O  0.48735049  0.80823843  0.19758525    -1.23310
O133        O  0.24842074  0.49695078  0.29293975    -0.85570
O134        O  0.14898842  0.53868044  0.26891078    -0.82610
C135        C  0.11398022  0.55467070  0.24050251     0.97900
O136        O  0.11602801  0.54270516  0.19286694    -0.82650
O137        O  0.19457994  0.53648932  0.10294593    -0.85290
C138        C  0.23738253  0.56168132  0.10120607     1.02420
O139        O  0.26649995  0.56120504  0.13838643    -0.78050
O140        O  0.26262012  0.55087369  0.23622614    -0.78240
C141        C  0.27713640  0.52998891  0.27439718     1.02370
O142        O  0.21659460  0.41110237  0.23490242    -0.85560
O143        O  0.14590920  0.44390541  0.29567287    -0.82630
C144        C  0.11580542  0.42624458  0.26174103     0.97920
O145        O  0.12176549  0.43774657  0.21291683    -0.82650
O146        O  0.20306702  0.42895185  0.12473798    -0.85260
C147        C  0.25040859  0.42731651  0.11153123     1.02390
O148        O  0.28035031  0.46089720  0.12499484    -0.78080
O149        O  0.28886569  0.44524167  0.22363173    -0.78230
C150        C  0.26336994  0.40990749  0.24039197     1.02350
Cr151      Cr  0.18621448  0.47669370  0.24950108     1.93740
Cr152      Cr  0.16092261  0.48721101  0.15769660     1.93210
Cr153      Cr  0.27232324  0.50499330  0.18248499     1.39100
O154        O  0.20904553  0.49946802  0.19633192    -1.23310
O155        O  0.24712963  0.47864940  0.70024178    -0.85570
O156        O  0.16142663  0.43567576  0.73051599    -0.82610
C157        C  0.12791966  0.42048603  0.75883993     0.97900
O158        O  0.13076753  0.43547100  0.80563433    -0.82650
O159        O  0.21605256  0.44171011  0.89052341    -0.85290
C160        C  0.26300762  0.42546036  0.89503282     1.02420
O161        O  0.29503192  0.43690691  0.86142391    -0.78050
O162        O  0.29013572  0.43617862  0.75488531    -0.78240
C163        C  0.28725578  0.45521338  0.71245627     1.02370
O164        O  0.21782018  0.56669083  0.76263712    -0.85560
O165        O  0.14223195  0.52957324  0.70890607    -0.82630
C166        C  0.12176319  0.55534263  0.74335977     0.97920
O167        O  0.13312107  0.54564161  0.79170946    -0.82650
O168        O  0.21728811  0.54971840  0.87727701    -0.85260
C169        C  0.26481949  0.56132449  0.88272692     1.02390
O170        O  0.29760187  0.53991283  0.85721000    -0.78080
O171        O  0.29293432  0.54430617  0.75159743    -0.78230
C172        C  0.25599120  0.57131962  0.73786435     1.02350
Cr173      Cr  0.19170419  0.49959616  0.74952882     1.93740
Cr174      Cr  0.17731083  0.49192966  0.84048233     1.93210
Cr175      Cr  0.29045724  0.48828194  0.80563318     1.39100
O176        O  0.22455949  0.48112452  0.79896335    -1.23310
O177        O  0.43574145  0.78617889  0.78392216    -0.85570
O178        O  0.46391302  0.85118889  0.71512547    -0.82610
C179        C  0.44917580  0.88068720  0.74941350     0.97900
O180        O  0.46445132  0.87479818  0.79724834    -0.82650
O181        O  0.45939383  0.79478367  0.88210051    -0.85290
C182        C  0.45823876  0.74958693  0.89803997     1.02420
O183        O  0.49592560  0.72257082  0.88870587    -0.78050
O184        O  0.46207511  0.70990488  0.79295548    -0.78240
C185        C  0.42645450  0.74131617  0.79016892     1.02370
O186        O  0.50881346  0.75599233  0.71208712    -0.85560
O187        O  0.56329760  0.84570667  0.73523981    -0.82630
C188        C  0.58260525  0.87880257  0.76378405     0.97920
O189        O  0.57200132  0.87705755  0.81112074    -0.82650
O190        O  0.57378781  0.79937906  0.89526624    -0.85260
C191        C  0.60166908  0.75928190  0.89032887     1.02390
O192        O  0.59594082  0.73111023  0.85281668    -0.78080
O193        O  0.56255075  0.71197688  0.75774705    -0.78230
C194        C  0.53828020  0.71917942  0.71775882     1.02350
Cr195      Cr  0.50056874  0.81218550  0.75985115     1.93740
Cr196      Cr  0.51852615  0.83362792  0.84704440     1.93210
Cr197      Cr  0.52991926  0.72259403  0.82157466     1.39100
O198        O  0.52912308  0.78561855  0.80729489    -1.23310
O199        O  0.78354674  0.41734442  0.79252697    -0.85570
O200        O  0.72694389  0.45160445  0.86712045    -0.82610
C201        C  0.76463960  0.43360825  0.89116624     0.97900
O202        O  0.81205619  0.44830354  0.88210011    -0.82650
O203        O  0.89520141  0.44005648  0.80289797    -0.85290
C204        C  0.90602588  0.43304034  0.75624810     1.02420
O205        O  0.88580998  0.46011842  0.72332896    -0.78050
O206        O  0.78264247  0.44505637  0.71646799    -0.78240
C207        C  0.77265273  0.41152996  0.74722453     1.02370
O208        O  0.71640244  0.49767890  0.77101211    -0.85560
O209        O  0.74815091  0.54703544  0.85525185    -0.82630
C210        C  0.77847255  0.57138767  0.88253596     0.97920
O211        O  0.82627687  0.56000714  0.87926559    -0.82650
O212        O  0.90869005  0.54715138  0.80035147    -0.85260
C213        C  0.90845239  0.56721831  0.75620914     1.02390
O214        O  0.87096474  0.56189711  0.72688784    -0.78080
O215        O  0.76474666  0.54705109  0.72611810    -0.78230
C216        C  0.72245176  0.52660351  0.73440130     1.02350
Cr217      Cr  0.76886517  0.48345777  0.82241291     1.93740
Cr218      Cr  0.85969315  0.49997094  0.83871471     1.93210
Cr219      Cr  0.82522207  0.50446197  0.72686874     1.39100
O220        O  0.81680948  0.50708969  0.79150776    -1.23310
O221        O  0.43641551  0.19918704  0.82339573    -0.85570
O222        O  0.48050265  0.26859717  0.88623656    -0.82610
C223        C  0.46390325  0.23474322  0.91477601     0.97900
O224        O  0.47231474  0.18633817  0.90437409    -0.82650
O225        O  0.45795122  0.09749559  0.81937761    -0.85290
C226        C  0.44467367  0.08974949  0.77235698     1.02420
O227        O  0.46666148  0.11202406  0.73856803    -0.78050
O228        O  0.44721123  0.21089764  0.74610561    -0.78240
C229        C  0.41830277  0.21398790  0.78407600     1.02370
O230        O  0.51177465  0.27153062  0.77745297    -0.85560
O231        O  0.57209698  0.24760099  0.85998857    -0.82630
C232        C  0.58754210  0.22328234  0.89699444     0.97920
O233        O  0.57588006  0.17621870  0.89792691    -0.82650
O234        O  0.57194011  0.09205564  0.81503177    -0.85260
C235        C  0.58704478  0.09112321  0.76835696     1.02390
O236        O  0.56932485  0.12089532  0.73663391    -0.78080
O237        O  0.56371149  0.21763345  0.74769878    -0.78230
C238        C  0.54446174  0.25880751  0.74450877     1.02350
Cr239      Cr  0.50522490  0.22456144  0.83803579     1.93740
Cr240      Cr  0.51975973  0.13684989  0.85583649     1.93210
Cr241      Cr  0.51273207  0.16712333  0.74428955     1.39100
O242        O  0.52421204  0.17576091  0.80765535    -1.23310
O243        O  0.23285695  0.20030313  0.58415766    -0.85570
O244        O  0.29464142  0.12451078  0.55885599    -0.82610
C245        C  0.25884210  0.09797778  0.57535232     0.97900
O246        O  0.21079520  0.10624149  0.55829852    -0.82650
O247        O  0.12439045  0.18998044  0.55456798    -0.85290
C248        C  0.10847250  0.23542321  0.55296425     1.02420
O249        O  0.12802025  0.26527376  0.52288295    -0.78050
O250        O  0.22662538  0.27441595  0.55296370    -0.78240
C251        C  0.24069961  0.24615513  0.58738613     1.02370
O252        O  0.30553332  0.21824071  0.50970397    -0.85560
O253        O  0.27507369  0.13026394  0.45965668    -0.82630
C254        C  0.24484338  0.10153217  0.43645783     0.97920
O255        O  0.19713116  0.10529429  0.44594635    -0.82650
O256        O  0.11552348  0.18616252  0.44665665    -0.85260
C257        C  0.12069919  0.22706385  0.42110683     1.02390
O258        O  0.16061217  0.25178129  0.42467304    -0.78080
O259        O  0.25944238  0.25735518  0.45389373    -0.78230
C260        C  0.29791405  0.25548980  0.48202211     1.02350
Cr261      Cr  0.25274999  0.16667156  0.52119438     1.93740
Cr262      Cr  0.16263929  0.14922017  0.50061920     1.93210
Cr263      Cr  0.19468683  0.25885573  0.48830714     1.39100
O264        O  0.20523964  0.19509507  0.49252170    -1.23310
C265        C  0.41496522  0.35241342  0.73709122     0.02910
C266        C  0.43557454  0.39838711  0.72883539    -0.13240
C267        C  0.44532348  0.41256103  0.67845537     0.00410
C268        C  0.44178026  0.37528331  0.64094553    -0.11760
C269        C  0.42430482  0.32830445  0.65323527     0.02900
C270        C  0.42668387  0.31599699  0.70262201    -0.11180
H271        H  0.43328422  0.42458890  0.75948507     0.08500
H272        H  0.44253916  0.38540841  0.60235433     0.06030
H273        H  0.41638449  0.27925448  0.70985130     0.05880
C274        C  0.37823172  0.44398457  0.40028395     0.02910
C275        C  0.43071793  0.44898722  0.39771159    -0.13240
C276        C  0.45997270  0.43276891  0.43802398     0.00410
C277        C  0.43959142  0.43680012  0.48579731    -0.11760
C278        C  0.38655273  0.43665140  0.48976835     0.02900
C279        C  0.35840379  0.45279757  0.44771907    -0.11180
H280        H  0.44934753  0.44875146  0.36264922     0.08500
H281        H  0.46252196  0.42474031  0.51702715     0.06030
H282        H  0.31858682  0.45916042  0.45070983     0.05880
C283        C  0.61976671  0.39730510  0.62069901     0.02910
C284        C  0.63368483  0.40364561  0.57074361    -0.13240
C285        C  0.59994897  0.39159193  0.53064494     0.00410
C286        C  0.55143933  0.37555879  0.54343171    -0.11760
C287        C  0.54619858  0.35781444  0.59134453     0.02900
C288        C  0.56902946  0.38625800  0.62930176    -0.11180
H289        H  0.67252501  0.41229315  0.56379044     0.08500
H290        H  0.52630486  0.36074523  0.51502699     0.06030
H291        H  0.55737697  0.37887862  0.66703793     0.05880
C292        C  0.58569031  0.50939741  0.56771923     0.02910
C293        C  0.60484717  0.52849950  0.52298469    -0.13240
C294        C  0.58658479  0.57439290  0.50763922     0.00410
C295        C  0.53557206  0.58302661  0.51632861    -0.11760
C296        C  0.52038184  0.56984501  0.56395517     0.02900
C297        C  0.53509356  0.52193807  0.57754616    -0.11180
H298        H  0.64179808  0.51959086  0.51074383     0.08500
H299        H  0.51734654  0.61398474  0.49868242     0.06030
H300        H  0.51545012  0.50425568  0.60737004     0.05880
C301        C  0.40033856  0.63059756  0.66297164     0.02910
C302        C  0.37335640  0.58637392  0.66223274    -0.13240
C303        C  0.35501470  0.57081986  0.61637681     0.00410
C304        C  0.39295524  0.56880986  0.58224251    -0.11760
C305        C  0.41701818  0.61434431  0.57469699     0.02900
C306        C  0.42094276  0.64639515  0.61739434    -0.11180
H307        H  0.35068914  0.57746922  0.69348552     0.08500
H308        H  0.39052013  0.54022206  0.55388270     0.06030
H309        H  0.43633836  0.68315426  0.61488849     0.05880
C310        C  0.46290490  0.62275560  0.40774557     0.02910
C311        C  0.42043787  0.65490705  0.40505765    -0.13240
C312        C  0.37283613  0.63659186  0.38974559     0.00410
C313        C  0.36759613  0.58493645  0.38698050    -0.11760
C314        C  0.41185694  0.55929129  0.37566022     0.02900
C315        C  0.45326820  0.57194640  0.40545900    -0.11180
H316        H  0.42539833  0.69444885  0.40868604     0.08500
H317        H  0.33254250  0.56822357  0.37522254     0.06030
H318        H  0.48492403  0.54655240  0.40662763     0.05880
C319        C  0.63146283  0.64804534  0.37184882     0.02910
C320        C  0.62531431  0.59958736  0.38806492    -0.13240
C321        C  0.62093763  0.56147389  0.35269655     0.00410
C322        C  0.62926168  0.57359574  0.30156460    -0.11760
C323        C  0.63587717  0.62222021  0.28865541     0.02900
C324        C  0.61938461  0.65749266  0.32269950    -0.11180
H325        H  0.63497832  0.59044892  0.42570249     0.08500
H326        H  0.63327059  0.54703329  0.27184853     0.06030
H327        H  0.61457307  0.69531199  0.31164890     0.05880
C328        C  0.83286021  0.27362608  0.35251874     0.02910
C329        C  0.79814739  0.28911992  0.38898128    -0.13240
C330        C  0.76497374  0.32827896  0.37977388     0.00410
C331        C  0.78269146  0.36264372  0.34531671    -0.11760
C332        C  0.81348251  0.34348816  0.30699741     0.02900
C333        C  0.85062543  0.31033976  0.32226508    -0.11180
H334        H  0.78494138  0.26243185  0.41284173     0.08500
H335        H  0.76133691  0.39581766  0.33867021     0.06030
H336        H  0.87971171  0.29993044  0.29671990     0.05880
O337        O  0.73105398  0.89211622  0.70801235    -0.85570
O338        O  0.80203497  0.92483207  0.64175577    -0.82610
C339        C  0.76730841  0.91381189  0.61043956     0.97900
O340        O  0.71957885  0.93111698  0.61699174    -0.82650
O341        O  0.63191222  0.92321057  0.69736117    -0.85290
C342        C  0.61735375  0.91994359  0.74346241     1.02420
O343        O  0.63363107  0.95162647  0.77518207    -0.78050
O344        O  0.73218800  0.92109565  0.78391295    -0.78240
C345        C  0.72201654  0.88623871  0.75399505     1.02370
O346        O  0.80922661  0.96172555  0.73851403    -0.85560
O347        O  0.78534383  0.02354108  0.65497874    -0.82630
C348        C  0.75597289  0.05286040  0.63105660     0.97920
O349        O  0.70782060  0.04310467  0.63168371    -0.82650
O350        O  0.62323567  0.03242002  0.70571259    -0.85260
C351        C  0.62738751  0.05577935  0.74885324     1.02390
O352        O  0.66633719  0.04997796  0.77590170    -0.78080
O353        O  0.76745282  0.01827923  0.78152320    -0.78230
C354        C  0.80504378  0.98962327  0.77645214     1.02350
Cr355      Cr  0.75860136  0.95857098  0.68366304     1.93740
Cr356      Cr  0.67082864  0.98298883  0.66485768     1.93210
Cr357      Cr  0.70116409  0.98615575  0.77649591     1.39100
O358        O  0.71226691  0.98679906  0.71302012    -1.23310
C359        C  0.83941694  0.12522630  0.88842568     0.02910
C360        C  0.83448777  0.07562935  0.89998645    -0.13240
C361        C  0.87558759  0.04792901  0.91980560     0.00410
C362        C  0.92207002  0.07129810  0.92702013    -0.11760
C363        C  0.92653563  0.12007938  0.91252435     0.02900
C364        C  0.88342963  0.14876110  0.90389310    -0.11180
H365        H  0.80018331  0.05754628  0.88879617     0.08500
H366        H  0.95601509  0.04978064  0.93396890     0.06030
H367        H  0.88782032  0.18814600  0.89877960     0.05880
O368        O  0.07344279  0.26113416  0.75631264    -0.85570
O369        O  0.06214846  0.36271125  0.76896630    -0.82610
C370        C  0.08529197  0.38675688  0.73693230     0.97900
O371        O  0.07177796  0.38261284  0.68933540    -0.82650
O372        O  0.05815182  0.30128181  0.60027257    -0.85290
C373        C  0.06686675  0.25356805  0.58758633     1.02420
O374        O  0.04317936  0.21953735  0.60947098    -0.78050
O375        O  0.09124252  0.27676603  0.68050137    -0.78240
C376        C  0.10262448  0.25475169  0.71890462     1.02370
O377        O  0.96267044  0.25729711  0.75693800    -0.85560
O378        O  0.95699042  0.35951601  0.76873713    -0.82630
C379        C  0.94292661  0.39292287  0.73818122     0.97920
O380        O  0.95950553  0.39298288  0.69249992    -0.82650
O381        O  0.94424040  0.31225356  0.61204978    -0.85260
C382        C  0.92899373  0.26610127  0.61562616     1.02390
O383        O  0.95281416  0.23943987  0.64488924    -0.78080
O384        O  0.01039514  0.20703853  0.71303567    -0.78230
C385        C  0.98082133  0.21505796  0.74930281     1.02350
Cr386      Cr  0.01280933  0.30942821  0.76060491     1.93740
Cr387      Cr  0.00808600  0.34740880  0.65088811     1.93210
Cr388      Cr  0.02061417  0.25976365  0.66177989     1.39100
O389        O  0.00324826  0.30587219  0.69698776    -1.23310
O390        O  0.23753316  0.04509336  0.74002842    -0.85570
O391        O  0.24117562  0.03464482  0.63699727    -0.82610
C392        C  0.27484522  0.05863925  0.61509669     0.97900
O393        O  0.32174213  0.04976532  0.62696303    -0.82650
O394        O  0.40311747  0.03633471  0.70742589    -0.85290
C395        C  0.40280053  0.05503748  0.75275658     1.02420
O396        O  0.36683380  0.04488954  0.78085512    -0.78050
O397        O  0.27480473  0.01020316  0.80353186    -0.78240
C398        C  0.24008560  0.03569016  0.78577136     1.02370
O399        O  0.22861858  0.94050111  0.74910313    -0.85560
O400        O  0.24081683  0.93067833  0.64824416    -0.82630
C401        C  0.27106371  0.92052995  0.61384770     0.97920
O402        O  0.31553952  0.94061031  0.61430490    -0.82650
O403        O  0.39434286  0.92693617  0.69025789    -0.85260
C404        C  0.41258367  0.92086138  0.73453542     1.02390
O405        O  0.39913509  0.94933936  0.76834305    -0.78080
O406        O  0.30144052  0.91432574  0.77925205    -0.78230
C407        C  0.25381885  0.91293716  0.77819880     1.02350
Cr408      Cr  0.24404683  0.98769293  0.69522313     1.93740
Cr409      Cr  0.35582477  0.98871703  0.66303069     1.93210
Cr410      Cr  0.33297457  0.98038239  0.77517099     1.39100
O411        O  0.31104947  0.98602559  0.71029012    -1.23310
C412        C  0.10016089  0.09402002  0.87874372     0.02910
C413        C  0.06927156  0.10812107  0.83871977    -0.13240
C414        C  0.08775262  0.14547996  0.81045277     0.00410
C415        C  0.10252837  0.18675203  0.83828075    -0.11760
C416        C  0.13598246  0.17813091  0.87732284     0.02900
C417        C  0.13340352  0.13115664  0.89899618    -0.11180
H418        H  0.04629011  0.08132131  0.81899289     0.08500
H419        H  0.10712336  0.22001619  0.81864925     0.06030
H420        H  0.16443021  0.12080030  0.92241301     0.05880
O421        O  0.94273835  0.69560243  0.71097250    -0.85570
O422        O  0.97167502  0.62501556  0.77538439    -0.82610
C423        C  0.95130054  0.60041538  0.74001569     0.97900
O424        O  0.96566434  0.60756850  0.69222508    -0.82650
O425        O  0.96423764  0.69089534  0.61254963    -0.85290
C426        C  0.96273439  0.73677731  0.59943295     1.02420
O427        O  0.99933533  0.76444401  0.61269638    -0.78050
O428        O  0.97240400  0.77108091  0.71000828    -0.78240
C429        C  0.93581396  0.74135367  0.71029079     1.02370
O430        O  0.01773941  0.71528372  0.78493813    -0.85560
O431        O  0.06935020  0.62893212  0.75567833    -0.82630
C432        C  0.08817558  0.59814985  0.72512332     0.97920
O433        O  0.07738841  0.60355463  0.67793570    -0.82650
O434        O  0.07707661  0.68747373  0.59995792    -0.85260
C435        C  0.10466070  0.72780873  0.60686670     1.02390
O436        O  0.10133672  0.75286176  0.64650782    -0.78080
O437        O  0.07202438  0.76216718  0.74460064    -0.78230
C438        C  0.04729834  0.75183154  0.78325690     1.02350
Cr439      Cr  0.00738310  0.66502697  0.73287811     1.93740
Cr440      Cr  0.02260369  0.64974357  0.64550023     1.93210
Cr441      Cr  0.03719121  0.75888396  0.67938576     1.39100
O442        O  0.03542843  0.69482536  0.68819392    -1.23310
C443        C  0.10532428  0.94276450  0.91853920     0.02910
C444        C  0.05499986  0.93927832  0.90356901    -0.13240
C445        C  0.02643588  0.90251383  0.92624795     0.00410
C446        C  0.03877991  0.89267787  0.97688968    -0.11760
C447        C  0.08859726  0.90374919  0.99412565     0.02900
C448        C  0.11136021  0.94361457  0.97031542    -0.11180
H449        H  0.04498270  0.95154649  0.86704396     0.08500
H450        H  0.01648649  0.86567470  0.99601190     0.06030
H451        H  0.14543013  0.95891841  0.98627508     0.05880
O452        O  0.28158073  0.76453559  0.03393441    -0.85570
O453        O  0.38174993  0.76785450  0.02268638    -0.82610
C454        C  0.39538181  0.74202839  0.05951386     0.97900
O455        O  0.38541697  0.69453467  0.05816474    -0.82650
O456        O  0.30496996  0.60460323  0.04814981    -0.85290
C457        C  0.25552518  0.59464525  0.05761389     1.02420
O458        O  0.22162948  0.61752513  0.03314536    -0.78050
O459        O  0.28344096  0.69103206  0.06707823    -0.78240
C460        C  0.27454230  0.73597154  0.07031766     1.02370
O461        O  0.26155505  0.75127995  0.93248504    -0.85560
O462        O  0.37012454  0.75092923  0.91979416    -0.82630
C463        C  0.41152624  0.72743426  0.92468785     0.97920
O464        O  0.41263164  0.68688059  0.95168483    -0.82650
O465        O  0.33036312  0.60301946  0.93771240    -0.85260
C466        C  0.28363376  0.59963776  0.92080518     1.02390
O467        O  0.25113699  0.62818356  0.93871032    -0.78080
O468        O  0.21553509  0.70891984  0.98550777    -0.78230
C469        C  0.22021738  0.74430110  0.95530710     1.02350
Cr470      Cr  0.32282062  0.75537444  0.97601534     1.93740
Cr471      Cr  0.35843420  0.64889823  0.99756421     1.93210
Cr472      Cr  0.26801945  0.66036024  0.00195260     1.39100
O473        O  0.31615055  0.69157731  0.97923489    -1.23310
O474        O  0.07228229  0.70259066  0.24074624    -0.85570
O475        O  0.04103097  0.60575693  0.23086065    -0.82610
C476        C  0.07003850  0.58657196  0.26259712     0.97900
O477        O  0.06074639  0.59422532  0.31021700    -0.82650
O478        O  0.05308347  0.67618417  0.39912231    -0.85290
C479        C  0.06531321  0.72374570  0.41011899     1.02420
O480        O  0.04420619  0.75889767  0.38690075    -0.78050
O481        O  0.08323730  0.69079197  0.31935024    -0.78240
C482        C  0.10107259  0.70324251  0.27937276     1.02370
O483        O  0.96331635  0.72875096  0.24186796    -0.85560
O484        O  0.93858592  0.62913277  0.23276936    -0.82630
C485        C  0.92402463  0.59453143  0.26101730     0.97920
O486        O  0.94450667  0.58951600  0.30589491    -0.82650
O487        O  0.94326367  0.67024787  0.39105374    -0.85260
C488        C  0.93206984  0.71759037  0.39187823     1.02390
O489        O  0.95063362  0.74400980  0.35839050    -0.78080
O490        O  0.01897358  0.77079546  0.28485221    -0.78230
C491        C  0.99190381  0.76540335  0.24580153     1.02350
Cr492      Cr  0.00241843  0.66774729  0.23871337     1.93740
Cr493      Cr  0.99951306  0.63184956  0.34863175     1.93210
Cr494      Cr  0.01634885  0.71835484  0.33734381     1.39100
O495        O  0.99398928  0.67367338  0.30250735    -1.23310
C496        C  0.11588790  0.83003792  0.14406470     0.02910
C497        C  0.11697079  0.81539712  0.19367055    -0.13240
C498        C  0.14108441  0.84583732  0.22899929     0.00410
C499        C  0.14110383  0.89659630  0.22074426    -0.11760
C500        C  0.14112932  0.91057977  0.17037284     0.02900
C501        C  0.11458662  0.88137253  0.13572677    -0.11180
H502        H  0.11370459  0.77669382  0.20111528     0.08500
H503        H  0.16149917  0.91962084  0.24760461     0.06030
H504        H  0.11350623  0.89362994  0.09744681     0.05880
O505        O  0.74693560  0.78308520  0.02955837    -0.85570
O506        O  0.66269582  0.76524884  0.95990828    -0.82610
C507        C  0.63644387  0.73801361  0.93041957     0.97900
O508        O  0.63843887  0.69044674  0.93554408    -0.82650
O509        O  0.71356521  0.60621873  0.94227145    -0.85290
C510        C  0.75699305  0.61117511  0.91924334     1.02420
O511        O  0.78428262  0.64857959  0.92966231    -0.78050
O512        O  0.79466398  0.74250994  0.97569230    -0.78240
C513        C  0.78843650  0.77716533  0.00717527     1.02370
O514        O  0.71022367  0.70940233  0.09022134    -0.85560
O515        O  0.64414572  0.77907530  0.05654328    -0.82630
C516        C  0.61037050  0.74599623  0.06069117     0.97920
O517        O  0.61916205  0.69946099  0.04287470    -0.82650
O518        O  0.70245602  0.61386725  0.05454316    -0.85260
C519        C  0.74842050  0.59737887  0.05827049     1.02390
O520        O  0.77913379  0.60802159  0.02471109    -0.78080
O521        O  0.78988520  0.69821156  0.06918232    -0.78230
C522        C  0.75578737  0.70087926  0.10194617     1.02350
Cr523      Cr  0.68939172  0.73651962  0.02411258     1.93740
Cr524      Cr  0.67083135  0.65193116  0.99366503     1.93210
Cr525      Cr  0.78386299  0.67615733  0.99872568     1.39100
O526        O  0.71998494  0.69124404  0.99502809    -1.23310
C527        C  0.88320580  0.87527220  0.11354429     0.02910
C528        C  0.92509153  0.86480192  0.08533440    -0.13240
C529        C  0.94628514  0.81780728  0.08925670     0.00410
C530        C  0.91631017  0.77915425  0.10895649    -0.11760
C531        C  0.87697992  0.79051361  0.14161582     0.02900
C532        C  0.85809765  0.83843608  0.13934113    -0.11180
H533        H  0.94717439  0.89515026  0.07089247     0.08500
H534        H  0.92946658  0.74171554  0.10551591     0.06030
H535        H  0.82596827  0.84986159  0.16092407     0.05880
O536        O  0.33106937  0.27424523  0.92827508    -0.85570
O537        O  0.40153142  0.21576810  0.97226754    -0.82610
C538        C  0.42710414  0.25080923  0.95452490     0.97900
O539        O  0.41552572  0.29844821  0.96558171    -0.82650
O540        O  0.32882298  0.37912694  0.94878035    -0.85290
C541        C  0.28168742  0.39172263  0.94033695     1.02420
O542        O  0.24915834  0.37548841  0.97055171    -0.78050
O543        O  0.25054321  0.27721703  0.94584597    -0.78240
C544        C  0.28554853  0.27456460  0.91455440     1.02370
O545        O  0.30350797  0.20550046  0.99933156    -0.85560
O546        O  0.37895144  0.23851853  0.06633071    -0.82630
C547        C  0.40669014  0.26870444  0.09078684     0.97920
O548        O  0.40367891  0.31502923  0.07706293    -0.82650
O549        O  0.31791481  0.39138501  0.05941374    -0.85260
C550        C  0.27330511  0.38656200  0.07977234     1.02390
O551        O  0.24726441  0.34788923  0.07260203    -0.78080
O552        O  0.24583050  0.24636622  0.04317076    -0.78230
C553        C  0.26225855  0.20708810  0.02199211     1.02350
Cr554      Cr  0.35318406  0.25804438  0.99798142     1.93740
Cr555      Cr  0.36387812  0.34577444  0.01349419     1.93210
Cr556      Cr  0.25206078  0.31085201  0.00970671     1.39100
O557        O  0.31719252  0.30330716  0.01844413    -1.23310
O558        O  0.24855723  0.96430756  0.24554685    -0.85570
O559        O  0.24137572  0.93220049  0.35061578    -0.82610
C560        C  0.26723726  0.92669514  0.39072893     0.97900
O561        O  0.31008000  0.95055608  0.39595526    -0.82650
O562        O  0.38918378  0.94314202  0.31414175    -0.85290
C563        C  0.39261817  0.93655471  0.26591095     1.02420
O564        O  0.37043491  0.96817214  0.23866016    -0.78050
O565        O  0.28760348  0.02842596  0.21425871    -0.78240
C566        C  0.27058444  0.98604622  0.20885254     1.02370
O567        O  0.23049945  0.06093922  0.28254739    -0.85560
O568        O  0.23380306  0.03318212  0.37883853    -0.82630
C569        C  0.26541351  0.06265155  0.39977191     0.97920
O570        O  0.31333766  0.05857677  0.39034160    -0.82650
O571        O  0.39858199  0.05778465  0.31022422    -0.85260
C572        C  0.40608421  0.07713302  0.26438651     1.02390
O573        O  0.37873512  0.06515061  0.22727352    -0.78080
O574        O  0.30591625  0.09351205  0.29213095    -0.78230
C575        C  0.25865432  0.09866446  0.28729139     1.02350
Cr576      Cr  0.24070097  0.99647272  0.31323195     1.93740
Cr577      Cr  0.35131109  0.00174702  0.35239049     1.93210
Cr578      Cr  0.33697070  0.03023305  0.26710465     1.39100
O579        O  0.30537587  0.99942808  0.30888836    -1.23310
O580        O  0.96309319  0.25790724  0.21936253    -0.85570
O581        O  0.94132036  0.34964046  0.23958227    -0.82610
C582        C  0.93475731  0.38571204  0.26778695     0.97900
O583        O  0.95609050  0.38589129  0.31272344    -0.82650
O584        O  0.94666658  0.30139474  0.39131647    -0.85290
C585        C  0.94485043  0.25569292  0.40654539     1.02420
O586        O  0.97471439  0.22549779  0.38567110    -0.78050
O587        O  0.93797583  0.22970446  0.28958915    -0.78240
C588        C  0.93725214  0.22768232  0.24354462     1.02370
O589        O  0.07043800  0.28685805  0.23759214    -0.85560
O590        O  0.04131241  0.37940871  0.24614325    -0.82630
C591        C  0.07364676  0.39141840  0.27838458     0.97920
O592        O  0.06931218  0.37369618  0.32278012    -0.82650
O593        O  0.05819926  0.29057905  0.39445142    -0.85260
C594        C  0.08119451  0.24842189  0.38596313     1.02390
O595        O  0.07293282  0.22527464  0.34584349    -0.78080
O596        O  0.03896311  0.21455313  0.24793319    -0.78230
C597        C  0.06475784  0.24431786  0.22219595     1.02350
Cr598      Cr  0.00436655  0.31591986  0.24114869     1.93740
Cr599      Cr  0.00701136  0.33632217  0.35307048     1.93210
Cr600      Cr  0.00604524  0.22906208  0.31583636     1.39100
O601        O  0.00506688  0.29458529  0.30447849    -1.23310
C602        C  0.07067523  0.11564305  0.10766830     0.02910
C603        C  0.08352845  0.08030115  0.07190804    -0.13240
C604        C  0.13456646  0.06763590  0.07216687     0.00410
C605        C  0.15959949  0.06679629  0.11932931    -0.11760
C606        C  0.13799939  0.09022892  0.16110057     0.02900
C607        C  0.08792154  0.10627982  0.15624238    -0.11180
H608        H  0.06451597  0.08159978  0.03593096     0.08500
H609        H  0.19915068  0.05874327  0.12093571     0.06030
H610        H  0.07345042  0.13052654  0.18505437     0.05880
O611        O  0.75995390  0.23495408  0.04705272    -0.85570
O612        O  0.65852306  0.24300987  0.07782628    -0.82610
C613        C  0.62204022  0.27313570  0.08415790     0.97900
O614        O  0.61667107  0.31071282  0.05414253    -0.82650
O615        O  0.70008830  0.38801470  0.04789985    -0.85290
C616        C  0.74871695  0.39104980  0.05567555     1.02420
O617        O  0.77674965  0.35819790  0.03666663    -0.78050
O618        O  0.80228841  0.26979104  0.98630488    -0.78240
C619        C  0.79779855  0.23629899  0.01889014     1.02370
O620        O  0.72423600  0.21705709  0.94617060    -0.85560
O621        O  0.62825084  0.22534078  0.97767517    -0.82630
C622        C  0.61552786  0.25042128  0.94019760     0.97920
O623        O  0.62603135  0.29748120  0.94056163    -0.82650
O624        O  0.70666514  0.38275070  0.94156196    -0.85260
C625        C  0.75371305  0.39215498  0.92633651     1.02390
O626        O  0.79088825  0.36459285  0.93916771    -0.78080
O627        O  0.72704115  0.29095143  0.91292249    -0.78230
C628        C  0.72430457  0.24470484  0.90790324     1.02350
Cr629      Cr  0.69422079  0.23307511  0.01303233     1.93740
Cr630      Cr  0.66179350  0.34160711  0.99688004     1.93210
Cr631      Cr  0.75065836  0.32269921  0.97635292     1.39100
O632        O  0.70442341  0.29601972  0.00662896    -1.23310
O633        O  0.73881445  0.07572814  0.30779141    -0.85570
O634        O  0.79343139  0.03600576  0.38423602    -0.82610
C635        C  0.75998104  0.04850839  0.41612324     0.97900
O636        O  0.71034641  0.03862064  0.40626873    -0.82650
O637        O  0.62070327  0.05902031  0.32423401    -0.85290
C638        C  0.61050352  0.07099792  0.27793619     1.02420
O639        O  0.62869872  0.04510665  0.24267796    -0.78050
O640        O  0.73114137  0.04785034  0.23171590    -0.78240
C641        C  0.74818017  0.07950089  0.26198064     1.02370
O642        O  0.79452959  0.98911906  0.28550134    -0.85560
O643        O  0.76532705  0.94521483  0.36856480    -0.82630
C644        C  0.73561673  0.92135360  0.39505016     0.97920
O645        O  0.68776010  0.93246482  0.39148789    -0.82650
O646        O  0.60197379  0.94944138  0.31313705    -0.85260
C647        C  0.60077617  0.93108835  0.26721125     1.02390
O648        O  0.63578728  0.94042396  0.23823358    -0.78080
O649        O  0.73738626  0.94547158  0.24197397    -0.78230
C650        C  0.78197743  0.96048211  0.24945909     1.02350
Cr651      Cr  0.74721696  0.00967288  0.33778182     1.93740
Cr652      Cr  0.65528117  0.99481584  0.35576218     1.93210
Cr653      Cr  0.68384782  0.99414654  0.24296781     1.39100
O654        O  0.69573014  0.98987245  0.30741831    -1.23310
C655        C  0.88690494  0.03502191  0.13615887     0.02910
C656        C  0.93853707  0.02714985  0.14381273    -0.13240
C657        C  0.96751818  0.06260771  0.12138722     0.00410
C658        C  0.95686065  0.06793671  0.06997203    -0.11760
C659        C  0.90574574  0.06433425  0.05373097     0.02900
C660        C  0.87256078  0.03952356  0.08608813    -0.11180
H661        H  0.95234038  0.01380305  0.17902996     0.08500
H662        H  0.98331594  0.08829340  0.04882186     0.06030
H663        H  0.83257415  0.03708430  0.07848369     0.05880
C664        C  0.85611860  0.87104931  0.91700653     0.02910
C665        C  0.80634546  0.85151202  0.91184476    -0.13240
C666        C  0.78856488  0.83616201  0.86532146     0.00410
C667        C  0.81378241  0.85405629  0.82409023    -0.11760
C668        C  0.86468082  0.86443787  0.82831792     0.02900
C669        C  0.88524884  0.87439999  0.87502546    -0.11180
H670        H  0.78160791  0.84628348  0.94253088     0.08500
H671        H  0.80023275  0.84582823  0.78703405     0.06030
H672        H  0.92381506  0.88304995  0.87998212     0.05880
C673        C  0.83717183  0.08455389  0.26028185    -0.21520
C674        C  0.79194298  0.10646707  0.24426925    -0.09560
C675        C  0.78872371  0.12136793  0.19447148     0.29290
C676        C  0.81960877  0.09814921  0.15938323    -0.21520
C677        C  0.85719323  0.06364134  0.17450033    -0.09580
C678        C  0.86853246  0.06158066  0.22614835     0.29300
F679        F  0.90686748  0.03430935  0.24535821    -0.20100
H680        H  0.84210409  0.07268810  0.29834497     0.17660
H681        H  0.81258696  0.10647549  0.12054522     0.17670
F682        F  0.74815956  0.14785273  0.17835916    -0.20090
C683        C  0.88000893  0.19403211  0.01234001    -0.21520
C684        C  0.82779832  0.19196920  0.01535841    -0.09560
C685        C  0.80282534  0.14627838  0.01182761     0.29290
C686        C  0.83033940  0.10297412  0.01302071    -0.21520
C687        C  0.88266175  0.10441493  0.02244245    -0.09580
C688        C  0.90758110  0.15028564  0.01426281     0.29300
F689        F  0.95808916  0.15379985  0.00883004    -0.20100
H690        H  0.89938607  0.22920653  0.01001390     0.17660
H691        H  0.80983750  0.06843261  0.01038927     0.17670
F692        F  0.75164648  0.14327220  0.00903574    -0.20090
C693        C  0.12011582  0.22198274  0.15359010    -0.21520
C694        C  0.07275185  0.23584447  0.16942172    -0.09560
C695        C  0.03214438  0.23309601  0.13480011     0.29290
C696        C  0.03420652  0.19766400  0.09700786    -0.21520
C697        C  0.07731761  0.16862424  0.09416182    -0.09580
C698        C  0.12273550  0.19193308  0.11148889     0.29300
F699        F  0.16825022  0.17253617  0.10228983    -0.20100
H700        H  0.15347164  0.22846673  0.17669925     0.17660
H701        H  0.00042910  0.18835821  0.07645927     0.17670
F702        F  0.99246525  0.26458803  0.13582340    -0.20090
C703        C  0.95964367  0.14168145  0.23748466    -0.21520
C704        C  0.92940199  0.18071277  0.21981457    -0.09560
C705        C  0.91398585  0.18161147  0.17045973     0.29290
C706        C  0.93263223  0.14684556  0.13795366    -0.21520
C707        C  0.96509288  0.10839815  0.15325170    -0.09580
C708        C  0.97871048  0.10660500  0.20431348     0.29300
F709        F  0.00850627  0.06978352  0.22239351    -0.20100
H710        H  0.97278836  0.14118894  0.27601051     0.17660
H711        H  0.91845091  0.14926698  0.10148608     0.17670
F712        F  0.88491567  0.21913005  0.15270325    -0.20090
C713        C  0.24961640  0.15601740  0.22528108    -0.21520
C714        C  0.23624668  0.14639289  0.27427473    -0.09560
C715        C  0.18418833  0.14784331  0.28377067     0.29290
C716        C  0.15176872  0.12753914  0.24709535    -0.21520
C717        C  0.17086704  0.11568548  0.19926600    -0.09580
C718        C  0.21979184  0.13429405  0.18763137     0.29300
F719        F  0.24067473  0.12973168  0.14183833    -0.20100
H720        H  0.28847048  0.16502710  0.21690678     0.17660
H721        H  0.11364082  0.11796343  0.25739673     0.17670
F722        F  0.16799350  0.15147626  0.33152732    -0.20090
C723        C  0.24972165  0.11671718  0.02260994    -0.21520
C724        C  0.23035665  0.16458423  0.01732986    -0.09560
C725        C  0.17979532  0.17154434  0.00426543     0.29290
C726        C  0.14675340  0.13267626  0.00974477    -0.21520
C727        C  0.16412067  0.08784715  0.03042019    -0.09580
C728        C  0.21603171  0.07772504  0.02732491     0.29300
F729        F  0.23314859  0.03068001  0.02877456    -0.20100
H730        H  0.29000330  0.11008088  0.02578436     0.17660
H731        H  0.10721561  0.14071987  0.00342894     0.17670
F732        F  0.16143366  0.21678257  0.99172156    -0.20090
C733        C  0.82584618  0.94248657  0.12194523    -0.21520
C734        C  0.87430401  0.92427092  0.13186769    -0.09560
C735        C  0.89619927  0.93186758  0.17948543     0.29290
C736        C  0.86579047  0.94279616  0.21928959    -0.21520
C737        C  0.81543738  0.95304881  0.20973940    -0.09580
C738        C  0.79639231  0.95741685  0.16087267     0.29300
F739        F  0.74831169  0.97257646  0.15101321    -0.20100
H740        H  0.80766069  0.93918726  0.08614468     0.17660
H741        H  0.88099620  0.94208599  0.25708812     0.17670
F742        F  0.94489252  0.92095018  0.18871141    -0.20090
C743        C  0.81795335  0.67390351  0.16221484    -0.21520
C744        C  0.77217933  0.69936840  0.15403918    -0.09560
C745        C  0.76549626  0.74408350  0.18016738     0.29290
C746        C  0.80830965  0.76750575  0.19947721    -0.21520
C747        C  0.85427148  0.75411365  0.17692536    -0.09580
C748        C  0.86108264  0.70290605  0.16924493     0.29300
F749        F  0.90674577  0.68289839  0.15903322    -0.20100
H750        H  0.82306398  0.63686831  0.14754310     0.17660
H751        H  0.80341869  0.80306773  0.21769443     0.17670
F752        F  0.72383426  0.77233581  0.17174799    -0.20090
C753        C  0.81989126  0.86025526  0.02574289    -0.21520
C754        C  0.83018680  0.81004219  0.01690612    -0.09560
C755        C  0.87806651  0.79593670  0.99894330     0.29290
C756        C  0.90694296  0.83171272  0.97593947    -0.21520
C757        C  0.88246223  0.87632723  0.96557215    -0.09580
C758        C  0.85162680  0.89440260  0.00324835     0.29300
F759        F  0.84764494  0.94358927  0.01146399    -0.20100
H760        H  0.78522301  0.87204497  0.04321680     0.17660
H761        H  0.93824860  0.81941794  0.95362362     0.17670
F762        F  0.89228649  0.74768272  0.99578079    -0.20090
C763        C  0.23354207  0.89274006  0.17214990    -0.21520
C764        C  0.19239763  0.92165232  0.15417781    -0.09560
C765        C  0.20404142  0.95813905  0.11976487     0.29290
C766        C  0.25334927  0.97740112  0.12261379    -0.21520
C767        C  0.28346204  0.96065597  0.16198764    -0.09580
C768        C  0.28206086  0.91032499  0.16855914     0.29300
F769        F  0.32032705  0.88618666  0.19200580    -0.20100
H770        H  0.22879352  0.85930327  0.19125183     0.17660
H771        H  0.26481199  0.01011938  0.10353996     0.17670
F772        F  0.16983331  0.97238178  0.08487111    -0.20090
C773        C  0.14480132  0.77194645  0.32024292    -0.21520
C774        C  0.14668853  0.73292267  0.28472654    -0.09560
C775        C  0.18408896  0.73438387  0.24899017     0.29290
C776        C  0.20576982  0.78054033  0.24027194    -0.21520
C777        C  0.18087916  0.82285672  0.26106565    -0.09580
C778        C  0.16457044  0.81772375  0.30928899     0.29300
F779        F  0.14980084  0.85792781  0.33628288    -0.20100
H780        H  0.12074848  0.77102065  0.35119026     0.17660
H781        H  0.22946738  0.78308746  0.20808604     0.17670
F782        F  0.19346969  0.69476836  0.21897964    -0.20090
C783        C  0.01742847  0.75271786  0.15957592    -0.21520
C784        C  0.00733955  0.78592895  0.19930888    -0.09560
C785        C  0.00906724  0.83648776  0.19146671     0.29290
C786        C  0.01023601  0.85242077  0.14208508    -0.21520
C787        C  0.00030448  0.81741630  0.10342153    -0.09580
C788        C  0.01973361  0.76991321  0.11106330     0.29300
F789        F  0.01887836  0.73586878  0.07328967    -0.20100
H790        H  0.01851932  0.71312363  0.16503384     0.17660
H791        H  0.00959454  0.89164202  0.13442358     0.17670
F792        F  0.01060255  0.86890985  0.23057427    -0.20090
C793        C  0.19901566  0.72452441  0.11599317    -0.21520
C794        C  0.24218170  0.75333791  0.10830657    -0.09560
C795        C  0.23862019  0.80414200  0.10766392     0.29290
C796        C  0.19220550  0.82367680  0.09716134    -0.21520
C797        C  0.14872964  0.79923533  0.11221712    -0.09580
C798        C  0.15213571  0.74744457  0.11851383     0.29300
F799        F  0.11153137  0.71936342  0.12890395    -0.20100
H800        H  0.20101172  0.68446093  0.11580189     0.17660
H801        H  0.19170914  0.86135194  0.08577657     0.17670
F802        F  0.28046624  0.83207184  0.09956242    -0.20090
C803        C  0.17665277  0.86827752  0.99457099    -0.21520
C804        C  0.12446462  0.86116342  0.00198043    -0.09560
C805        C  0.10737289  0.81208526  0.00080708     0.29290
C806        C  0.13670489  0.77473078  0.97988196    -0.21520
C807        C  0.18546380  0.78504914  0.96315354    -0.09580
C808        C  0.20604873  0.83186805  0.97289516     0.29300
F809        F  0.25567643  0.84167816  0.96531528    -0.20100
H810        H  0.19531025  0.90240493  0.00493854     0.17660
H811        H  0.12228368  0.73720803  0.97906461     0.17670
F812        F  0.06328814  0.79971770  0.02147585    -0.20090
C813        C  0.01818031  0.83308417  0.80539724    -0.21520
C814        C  0.04071635  0.78911398  0.82071245    -0.09560
C815        C  0.04297413  0.77722542  0.87097958     0.29290
C816        C  0.02747473  0.81188420  0.90604198    -0.21520
C817        C  0.01389540  0.86015245  0.89182342    -0.09580
C818        C  0.00419028  0.86823170  0.84037746     0.29300
F819        F  0.98444433  0.91129316  0.82319027    -0.20100
H820        H  0.01194504  0.84071477  0.76613277     0.17660
H821        H  0.02824521  0.80106824  0.94413627     0.17670
F822        F  0.06078261  0.73256650  0.88594276    -0.20090
C823        C  0.88102369  0.80988968  0.70702831    -0.21520
C824        C  0.88696970  0.76065316  0.72188862    -0.09560
C825        C  0.87838412  0.74875796  0.77144570     0.29290
C826        C  0.89105728  0.78408335  0.80715429    -0.21520
C827        C  0.89215782  0.83432158  0.79346644    -0.09580
C828        C  0.88801958  0.84709608  0.74280633     0.29300
F829        F  0.88625892  0.89512910  0.72896783    -0.20100
H830        H  0.88228731  0.81925119  0.66781483     0.17660
H831        H  0.89006107  0.77367856  0.84617144     0.17670
F832        F  0.87366772  0.70080020  0.78534067    -0.20090
C833        C  0.18089703  0.25820220  0.86333663    -0.21520
C834        C  0.18355627  0.20743222  0.87595662    -0.09560
C835        C  0.23132911  0.18364724  0.87254333     0.29290
C836        C  0.27386555  0.21068342  0.85976076    -0.21520
C837        C  0.27091413  0.26189800  0.86379164    -0.09580
C838        C  0.22468384  0.28371290  0.85086055     0.29300
F839        F  0.22207182  0.33301931  0.84239868    -0.20100
H840        H  0.14529587  0.27801039  0.86282681     0.17660
H841        H  0.31040470  0.19251956  0.86125877     0.17670
F842        F  0.23763962  0.13466892  0.87958507    -0.20090
C843        C  0.20496027  0.03775851  0.86874887    -0.21520
C844        C  0.19692824  0.03776252  0.81677362    -0.09560
C845        C  0.15006233  0.02173517  0.79768078     0.29290
C846        C  0.11047143  0.01732956  0.83069875    -0.21520
C847        C  0.11615212  0.04118342  0.87789392    -0.09580
C848        C  0.16367033  0.03356387  0.89921794     0.29300
F849        F  0.17007209  0.03323644  0.94872074    -0.20100
H850        H  0.24247630  0.03986901  0.88542567     0.17660
H851        H  0.07378255  0.00751229  0.81538871     0.17670
F852        F  0.14290106  0.00984354  0.74865378    -0.20090
C853        C  0.17490753  0.88123113  0.80808241    -0.21520
C854        C  0.22518603  0.89215826  0.81952121    -0.09560
C855        C  0.23708499  0.90987791  0.86777469     0.29290
C856        C  0.19845632  0.92517696  0.89978813    -0.21520
C857        C  0.14704421  0.92277844  0.88491544    -0.09580
C858        C  0.13667487  0.90057006  0.83752744     0.29300
F859        F  0.09179125  0.90515311  0.81412413    -0.20100
H860        H  0.16489666  0.86854965  0.77061760     0.17660
H861        H  0.20971975  0.94337166  0.93422402     0.17670
F862        F  0.28568289  0.92041783  0.88081365    -0.20090
C863        C  0.10477348  0.16749777  0.69228374    -0.21520
C864        C  0.13207015  0.20869432  0.71179973    -0.09560
C865        C  0.17225771  0.19728044  0.74387849     0.29290
C866        C  0.16994297  0.15171960  0.76800422    -0.21520
C867        C  0.12163267  0.12952368  0.76908173    -0.09580
C868        C  0.09739439  0.12727726  0.72311176     0.29300
F869        F  0.05726389  0.09683243  0.71515587    -0.20100
H870        H  0.08021029  0.16930274  0.66099402     0.17660
H871        H  0.19849715  0.14162984  0.79472717     0.17670
F872        F  0.20848309  0.23094165  0.75559375    -0.20090
C873        C  0.74930439  0.13709775  0.86065616    -0.21520
C874        C  0.80023589  0.15187275  0.85913872    -0.09560
C875        C  0.81076456  0.19758639  0.83606020     0.29290
C876        C  0.77269346  0.23332967  0.83424074    -0.21520
C877        C  0.72729986  0.22227060  0.85772114    -0.09580
C878        C  0.71209980  0.17270330  0.85488899     0.29300
F879        F  0.66389094  0.15968512  0.86329502    -0.20100
H880        H  0.73725870  0.10090301  0.87208657     0.17660
H881        H  0.78281138  0.27131968  0.82664611     0.17670
F882        F  0.85775635  0.20942865  0.82043869    -0.20090
C883        C  0.95562772  0.10791771  0.82948057    -0.21520
C884        C  0.96439123  0.13062000  0.87675546    -0.09560
C885        C  0.98657153  0.17723262  0.88054596     0.29290
C886        C  0.99159102  0.20418717  0.83768357    -0.21520
C887        C  0.97930173  0.18293019  0.79087735    -0.09580
C888        C  0.96321292  0.13424926  0.78625765     0.29300
F889        F  0.95035493  0.11424335  0.74109411    -0.20100
H890        H  0.93703417  0.07242226  0.82625119     0.17660
H891        H  0.00462708  0.24213843  0.84099664     0.17670
F892        F  0.99407319  0.19975785  0.92564463    -0.20090
C893        C  0.80435538  0.96691427  0.86358084    -0.21520
C894        C  0.83265380  0.97699009  0.82086895    -0.09560
C895        C  0.88523470  0.97914147  0.82403580     0.29290
C896        C  0.90731186  0.98181824  0.87153505    -0.21520
C897        C  0.87528623  0.99425276  0.91153561    -0.09580
C898        C  0.82639982  0.97391118  0.91028882     0.29300
F899        F  0.79426407  0.98215060  0.94860640    -0.20100
H900        H  0.76375873  0.96230733  0.86142039     0.17660
H901        H  0.94755836  0.98864949  0.87416125     0.17670
F902        F  0.91382175  0.98395766  0.78268454    -0.20090
C903        C  0.67806133  0.85054517  0.82399536    -0.21520
C904        C  0.69973426  0.84130049  0.77649100    -0.09560
C905        C  0.72389928  0.79532335  0.77035192     0.29290
C906        C  0.74456528  0.77381169  0.81386202    -0.21520
C907        C  0.74397273  0.80316211  0.85814572    -0.09580
C908        C  0.69936920  0.82892399  0.86602088     0.29300
F909        F  0.69036271  0.85020417  0.91125301    -0.20100
H910        H  0.65879399  0.88479739  0.83179951     0.17660
H911        H  0.77343937  0.74576041  0.80941467     0.17670
F912        F  0.74098142  0.78073879  0.72493290    -0.20090
C913        C  0.33600414  0.33607289  0.62754126    -0.21520
C914        C  0.37927448  0.30627054  0.62857833    -0.09560
C915        C  0.37289162  0.25445391  0.62471343     0.29290
C916        C  0.32504483  0.23423919  0.62036363    -0.21520
C917        C  0.28243384  0.26467370  0.61750373    -0.09580
C918        C  0.28810977  0.31591934  0.62267267     0.29300
F919        F  0.24740753  0.34655495  0.62074757    -0.20100
H920        H  0.33905501  0.37475649  0.63465327     0.17660
H921        H  0.32186020  0.19457220  0.61579686     0.17670
F922        F  0.41195546  0.22242727  0.62602959    -0.20090
C923        C  0.29029842  0.34424109  0.50057500    -0.21520
C924        C  0.32132583  0.30226040  0.49594196    -0.09560
C925        C  0.37146218  0.30483663  0.51149297     0.29290
C926        C  0.39226537  0.35080693  0.52358609    -0.21520
C927        C  0.36338754  0.39470640  0.51749028    -0.09580
C928        C  0.31053715  0.38936752  0.51536098     0.29300
F929        F  0.27908589  0.42895351  0.51873298    -0.20100
H930        H  0.25012336  0.34233992  0.49253789     0.17660
H931        H  0.43280490  0.35125539  0.52785837     0.17670
F932        F  0.40144960  0.26409883  0.50957203    -0.20090
C933        C  0.60096167  0.29008184  0.62189829    -0.21520
C934        C  0.55611462  0.30369217  0.59625278    -0.09560
C935        C  0.51456444  0.27683759  0.60959923     0.29290
C936        C  0.51144713  0.26257910  0.65943758    -0.21520
C937        C  0.54893344  0.27718045  0.69409309    -0.09580
C938        C  0.59731911  0.28298055  0.67359119     0.29300
F939        F  0.63974498  0.27970951  0.70246993    -0.20100
H940        H  0.63730475  0.29707799  0.60574427     0.17660
H941        H  0.48110899  0.23987467  0.67109441     0.17670
F942        F  0.47622732  0.27000531  0.57642293    -0.20090
C943        C  0.33180428  0.31321391  0.74725205    -0.21520
C944        C  0.36895355  0.34568744  0.76825635    -0.09560
C945        C  0.38106929  0.33485765  0.81739828     0.29290
C946        C  0.38305531  0.28490838  0.82915427    -0.21520
C947        C  0.37541917  0.24912196  0.79099834    -0.09580
C948        C  0.33991116  0.26206914  0.75429165     0.29300
F949        F  0.31840552  0.22737444  0.72404460    -0.20100
H950        H  0.30646073  0.32577918  0.71841767     0.17660
H951        H  0.39673988  0.27482353  0.86471415     0.17670
F952        F  0.40360477  0.36892636  0.84790463    -0.20090
C953        C  0.70599034  0.51620453  0.64628595    -0.21520
C954        C  0.68625954  0.52406636  0.69368149    -0.09560
C955        C  0.63486568  0.51716735  0.70165859     0.29290
C956        C  0.60295954  0.50688289  0.66122815    -0.21520
C957        C  0.62149216  0.50455655  0.61176065    -0.09580
C958        C  0.67492951  0.50474392  0.60621511     0.29300
F959        F  0.69878363  0.49570251  0.56261953    -0.20100
H960        H  0.74642588  0.51691023  0.64027855     0.17660
H961        H  0.56396339  0.50060697  0.66978561     0.17670
F962        F  0.61568775  0.51958238  0.74842078    -0.20090
C963        C  0.74271847  0.35624173  0.68337970    -0.21520
C964        C  0.73569565  0.37487367  0.73139022    -0.09560
C965        C  0.68634002  0.38565794  0.74670879     0.29290
C966        C  0.64889762  0.39440450  0.71069138    -0.21520
C967        C  0.65909545  0.38678863  0.65974508    -0.09580
C968        C  0.70539081  0.36333097  0.64731056     0.29300
F969        F  0.71590591  0.34778621  0.60049411    -0.20100
H970        H  0.78005770  0.34486113  0.67161598     0.17660
H971        H  0.61306885  0.40931740  0.72274159     0.17670
F972        F  0.67704020  0.39773567  0.79503044    -0.20090
C973        C  0.38360431  0.64359308  0.75312689    -0.21520
C974        C  0.38916159  0.66396520  0.70486580    -0.09560
C975        C  0.37272570  0.71328249  0.69699461     0.29290
C976        C  0.35679835  0.74118815  0.73797271    -0.21520
C977        C  0.37404419  0.72481764  0.78441402    -0.09580
C978        C  0.36936290  0.67421671  0.79261890     0.29300
F979        F  0.37065390  0.65646641  0.83978236    -0.20100
H980        H  0.39225608  0.60519121  0.76069481     0.17660
H981        H  0.34863193  0.78010437  0.73260792     0.17670
F982        F  0.37497090  0.73564601  0.65201843    -0.20090
C983        C  0.54459186  0.69417083  0.63106505    -0.21520
C984        C  0.53926630  0.68087319  0.68014135    -0.09560
C985        C  0.52728206  0.63208050  0.69249625     0.29290
C986        C  0.51948917  0.59697841  0.65478364    -0.21520
C987        C  0.52538077  0.60929926  0.60416937    -0.09580
C988        C  0.53775477  0.65940269  0.59362562     0.29300
F989        F  0.54051859  0.67748847  0.54750069    -0.20100
H990        H  0.55241432  0.73226764  0.62147682     0.17660
H991        H  0.50629657  0.56105510  0.66553823     0.17670
F992        F  0.51929137  0.61931740  0.74066733    -0.20090
C993        C  0.37430223  0.48979635  0.72242601    -0.21520
C994        C  0.33561457  0.46984883  0.69077886    -0.09560
C995        C  0.34578296  0.46510502  0.64000428     0.29290
C996        C  0.39651613  0.46660124  0.62534895    -0.21520
C997        C  0.43407610  0.46475786  0.66324002    -0.09580
C998        C  0.42314434  0.49567194  0.70383507     0.29300
F999        F  0.46080660  0.51076304  0.73537659    -0.20100
H1000       H  0.36837806  0.49740032  0.76167314     0.17660
H1001       H  0.40592613  0.45849139  0.58714420     0.17670
F1002       F  0.30835734  0.45516450  0.60657357    -0.20090
C1003       C  0.26674288  0.56037895  0.60057796    -0.21520
C1004       C  0.30568613  0.59403404  0.60065531    -0.09560
C1005       C  0.29250592  0.63928689  0.62467349     0.29290
C1006       C  0.27112703  0.63585538  0.67238752    -0.21520
C1007       C  0.25055588  0.59013017  0.68528216    -0.09580
C1008       C  0.23800038  0.55826252  0.64356974     0.29300
F1009       F  0.19902124  0.52632169  0.64184616    -0.20100
H1010       H  0.26395269  0.53156046  0.57223456     0.17660
H1011       H  0.27484777  0.66577013  0.69942001     0.17670
F1012       F  0.31233428  0.68226440  0.60935531    -0.20090
C1013       C  0.34905935  0.58510990  0.27789992    -0.21520
C1014       C  0.33105150  0.53668272  0.28349820    -0.09560
C1015       C  0.36921372  0.49972486  0.28019273     0.29290
C1016       C  0.41647128  0.51106618  0.30022374    -0.21520
C1017       C  0.42256168  0.55753600  0.32077981    -0.09580
C1018       C  0.39888818  0.59445798  0.29118242     0.29300
F1019       F  0.41276484  0.64220015  0.29348786    -0.20100
H1020       H  0.32438753  0.61562540  0.26793471     0.17660
H1021       H  0.44935260  0.48902705  0.29118218     0.17670
F1022       F  0.37109613  0.46691187  0.24208610    -0.20090
C1023       C  0.29563235  0.40591207  0.36701657    -0.21520
C1024       C  0.34770668  0.41574642  0.36048863    -0.09560
C1025       C  0.36956170  0.39414143  0.31691064     0.29290
C1026       C  0.33915782  0.37489840  0.27826120    -0.21520
C1027       C  0.28690194  0.38030484  0.28036006    -0.09580
C1028       C  0.26592311  0.38650908  0.32782378     0.29300
F1029       F  0.21537781  0.38243578  0.33407322    -0.20100
H1030       H  0.27624907  0.41485156  0.40107481     0.17660
H1031       H  0.35657300  0.36643038  0.24273323     0.17670
F1032       F  0.41912340  0.39712789  0.30669912    -0.20090
C1033       C  0.61166568  0.68415980  0.19286246    -0.21520
C1034       C  0.62651396  0.72681286  0.22049939    -0.09560
C1035       C  0.67264884  0.72568335  0.24604178     0.29290
C1036       C  0.69544601  0.67933876  0.25316986    -0.21520
C1037       C  0.66484118  0.63719123  0.24457554    -0.09580
C1038       C  0.63398435  0.63883572  0.20257681     0.29300
F1039       F  0.61179145  0.59689845  0.18453432    -0.20100
H1040       H  0.57888937  0.68294051  0.16970371     0.17660
H1041       H  0.72878605  0.67685068  0.27647253     0.17670
F1042       F  0.69266649  0.76763681  0.26618830    -0.20090
C1043       C  0.51390142  0.64101529  0.29144017    -0.21520
C1044       C  0.50137158  0.69082246  0.29402065    -0.09560
C1045       C  0.50727773  0.71727397  0.33944054     0.29290
C1046       C  0.51551489  0.69154992  0.38300811    -0.21520
C1047       C  0.50816963  0.64016857  0.38152111    -0.09580
C1048       C  0.51851462  0.61539288  0.33568377     0.29300
F1049       F  0.52285718  0.56553481  0.33211739    -0.20100
H1050       H  0.51432964  0.62109980  0.25605034     0.17660
H1051       H  0.51170294  0.71203778  0.41782960     0.17670
F1052       F  0.49980449  0.76691308  0.34277625    -0.20090
C1053       C  0.71522699  0.32626924  0.20335565    -0.21520
C1054       C  0.75047184  0.34055951  0.16848837    -0.09560
C1055       C  0.79397089  0.31115262  0.17112727     0.29290
C1056       C  0.81517609  0.30634841  0.21910974    -0.21520
C1057       C  0.78745763  0.32680150  0.25996244    -0.09580
C1058       C  0.73433181  0.33389361  0.25170132     0.29300
F1059       F  0.71109212  0.37180147  0.27457771    -0.20100
H1060       H  0.67611348  0.33640977  0.19637863     0.17660
H1061       H  0.85408365  0.29487347  0.22181841     0.17670
F1062       F  0.82260132  0.30338277  0.13019098    -0.20090
C1063       C  0.70888408  0.48940241  0.35691539    -0.21600
C1064       C  0.69391052  0.47709433  0.30802024    -0.09560
C1065       C  0.64388611  0.46223187  0.29751918     0.29290
C1066       C  0.60731801  0.47650375  0.33176754    -0.21520
C1067       C  0.62321797  0.50972688  0.36961426    -0.09580
C1068       C  0.67120262  0.50001556  0.39076486     0.29300
F1069       F  0.68547264  0.51898908  0.43576590    -0.20100
H1070       H  0.74815192  0.49587562  0.36700187     0.17660
H1071       H  0.56806075  0.47563345  0.31978661     0.17670
F1072       F  0.62979639  0.44463168  0.25171108    -0.20090
C1073       C  0.45183984  0.34526695  0.41763586    -0.21520
C1074       C  0.48472557  0.38584582  0.42361071    -0.09560
C1075       C  0.52498052  0.38925245  0.39101447     0.29290
C1076       C  0.52288761  0.36328688  0.34542385    -0.21520
C1077       C  0.48573735  0.32681981  0.33674504    -0.09580
C1078       C  0.45270388  0.31548217  0.37540285     0.29300
F1079       F  0.41571342  0.28097882  0.36945071    -0.20100
H1080       H  0.41736901  0.34384706  0.43745789     0.17660
H1081       H  0.54805359  0.37365798  0.31622603     0.17670
F1082       F  0.56025869  0.42429694  0.39982615    -0.20090
C1083       C  0.64036637  0.32564568  0.32301728    -0.21520
C1084       C  0.63420340  0.27440712  0.32223107    -0.09560
C1085       C  0.65201933  0.24901931  0.36418258     0.29290
C1086       C  0.69117504  0.26983502  0.39235575    -0.21520
C1087       C  0.70879244  0.31755442  0.38255362    -0.09580
C1088       C  0.67366486  0.34718524  0.35819798     0.29300
F1089       F  0.67451644  0.39598125  0.36611444    -0.20100
H1090       H  0.62093845  0.34847850  0.29613737     0.17660
H1091       H  0.70748160  0.24884545  0.42132738     0.17670
F1092       F  0.63310020  0.20423944  0.37688250    -0.20090
C1093       C  0.72340185  0.74686026  0.36249036    -0.21520
C1094       C  0.76838871  0.72095531  0.37022421    -0.09560
C1095       C  0.76788307  0.66950275  0.36675702     0.29290
C1096       C  0.72326036  0.64557348  0.37791617    -0.21520
C1097       C  0.67833614  0.67332153  0.38438943    -0.09580
C1098       C  0.67928331  0.72493479  0.37788227     0.29300
F1099       F  0.63638003  0.75249203  0.38026916    -0.20100
H1100       H  0.72366542  0.78675112  0.35828663     0.17660
H1101       H  0.72318884  0.60550393  0.37793456     0.17670
F1102       F  0.81186219  0.64365008  0.36519715    -0.20090
C1103       C  0.64584090  0.70158690  0.50084303    -0.21520
C1104       C  0.68429275  0.69870882  0.53718905    -0.09560
C1105       C  0.68657351  0.65770632  0.56820217     0.29290
C1106       C  0.65423020  0.61826251  0.55882283    -0.21520
C1107       C  0.62119143  0.61732533  0.51702570    -0.09580
C1108       C  0.61584730  0.66093030  0.49016013     0.29300
F1109       F  0.57809849  0.66587647  0.45687942    -0.20100
H1110       H  0.64069532  0.73428804  0.47836683     0.17660
H1111       H  0.65414410  0.58973030  0.58562402     0.17670
F1112       F  0.72048216  0.65512213  0.60662274    -0.20090
C1113       C  0.64449532  0.28739828  0.49415502    -0.21520
C1114       C  0.69393560  0.30241030  0.50587747    -0.09560
C1115       C  0.70921177  0.35066206  0.49248758     0.29290
C1116       C  0.67272055  0.38478736  0.47642262    -0.21520
C1117       C  0.62182742  0.37232525  0.48318316    -0.09580
C1118       C  0.61065276  0.32187243  0.47501043     0.29300
F1119       F  0.56411931  0.30648191  0.45985712    -0.20100
H1120       H  0.63348329  0.24887311  0.49611716     0.17660
H1121       H  0.68356067  0.42323206  0.47322354     0.17670
F1122       F  0.75813585  0.36529707  0.49719607    -0.20090
C1123       C  0.81759737  0.14187437  0.35569033    -0.21520
C1124       C  0.76768470  0.15262809  0.36943319    -0.09560
C1125       C  0.74239384  0.18067022  0.33368700     0.29290
C1126       C  0.76911200  0.21922876  0.31229095    -0.21520
C1127       C  0.82029376  0.22568598  0.32726749    -0.09580
C1128       C  0.84619935  0.18196774  0.34025953     0.29300
F1129       F  0.89568351  0.18071903  0.35173073    -0.20100
H1130       H  0.83853629  0.11334051  0.37481761     0.17660
H1131       H  0.74787126  0.24704004  0.29284113     0.17670
F1132       F  0.69562770  0.16805692  0.31690032    -0.20090
C1133       C  0.37615052  0.71101501  0.50663394    -0.21520
C1134       C  0.33060759  0.68520261  0.50000738    -0.09560
C1135       C  0.33098431  0.63468379  0.49034715     0.29290
C1136       C  0.37702815  0.61053786  0.49396312    -0.21520
C1137       C  0.41560497  0.63342207  0.52298790    -0.09580
C1138       C  0.41956230  0.68497037  0.51742503     0.29300
F1139       F  0.45958907  0.71143408  0.53399969    -0.20100
H1140       H  0.37715035  0.75108555  0.50910271     0.17660
H1141       H  0.37796616  0.57150937  0.48478834     0.17670
F1142       F  0.28812195  0.60906308  0.47931658    -0.20090
C1143       C  0.24874942  0.69751273  0.35316783    -0.21520
C1144       C  0.26693555  0.74617336  0.35246642    -0.09560
C1145       C  0.31634268  0.75310548  0.33666638     0.29290
C1146       C  0.35102795  0.71557636  0.34608348    -0.21520
C1147       C  0.33481282  0.67060716  0.36732412    -0.09580
C1148       C  0.28256713  0.65998947  0.36550195     0.29300
F1149       F  0.26318220  0.61650456  0.38096493    -0.20100
H1150       H  0.20904030  0.69060877  0.35946715     0.17660
H1151       H  0.39051206  0.72346910  0.34016351     0.17670
F1152       F  0.33329075  0.79927032  0.32665139    -0.20090
loop_ 
_geom_bond_atom_site_label_1 
_geom_bond_atom_site_label_2 
_geom_bond_distance 
_geom_bond_site_symmetry_2 
_ccdc_geom_bond_type 
O1          Cr19   1.977       .  S
O1            C9   1.264       .  A
O2          Cr19   1.976       .  S
O2            C3   1.258       .  A
C3            O4   1.305       .  A
C3          C435   1.523       .  S
O4          Cr20   2.104       .  S
O5          Cr20   2.130       .  S
O5            C6   1.309       .  A
C6            O7   1.264       .  A
C6          C401   1.531       .  S
O7          Cr21   1.972       .  S
O8          Cr21   1.935       .  S
O8            C9   1.258       .  A
C9         C1134   1.422       .  S
O10         Cr19   1.973       .  S
O10          C18   1.255       .  A
O11         Cr19   1.858       .  S
O11          C12   1.273       .  A
C12          O13   1.354       .  A
C12         C479   1.512       .  S
O13         Cr20   2.255       .  S
O14         Cr20   2.158       .  S
O14          C15   1.313       .  A
C15          O16   1.260       .  A
C15         C560   1.562       .  S
O16         Cr21   1.988       .  S
O17         Cr21   2.002       .  S
O17          C18   1.273       .  A
C18        C1144   1.456       .  S
Cr19         O22   1.654       .  S
Cr20         O22   1.675       .  S
Cr21         O22   1.730       .  S
O23         Cr41   1.998       .  S
O23          C31   1.264       .  A
O24         Cr41   2.005       .  S
O24          C25   1.258       .  A
C25          O26   1.304       .  A
C25         C635   1.557       .  S
O26         Cr42   2.128       .  S
O27         Cr42   2.334       .  S
O27          C28   1.363       .  A
C28          O29   1.266       .  A
C28         C585   1.596       .  S
O29         Cr43   1.909       .  S
O30         Cr43   1.943       .  S
O30          C31   1.263       .  A
C31        C1124   1.483       .  S
O32         Cr41   1.995       .  S
O32          C40   1.276       .  A
O33         Cr41   1.991       .  S
O33          C34   1.282       .  A
C34          O35   1.324       .  A
C34         C348   1.569       .  S
O35         Cr42   2.176       .  S
O36         Cr42   2.119       .  S
O36          C37   1.310       .  A
C37          O38   1.259       .  A
C37         C382   1.541       .  S
O38         Cr43   1.987       .  S
O39         Cr43   1.945       .  S
O39          C40   1.260       .  A
C40        C1114   1.456       .  S
Cr41         O44   1.776       .  S
Cr42         O44   1.712       .  S
Cr43         O44   1.646       .  S
O45         Cr63   1.958       .  S
O45          C53   1.267       .  A
O46         Cr63   2.000       .  S
O46          C47   1.263       .  A
C47          O48   1.304       .  A
C47         C488   1.544       .  S
O48         Cr64   2.124       .  S
O49         Cr64   2.309       .  S
O49          C50   1.359       .  A
C50          O51   1.264       .  A
C50         C644   1.549       .  S
O51         Cr65   1.874       .  S
O52         Cr65   1.957       .  S
O52          C53   1.250       .  A
C53        C1094   1.429       .  S
O54         Cr63   1.984       .  S
O54          C62   1.274       .  A
O55         Cr63   1.971       .  S
O55          C56   1.272       .  A
C56          O57   1.316       .  A
C56         C426   1.551       .  S
O57         Cr64   2.158       .  S
O58         Cr64   2.117       .  S
O58          C59   1.309       .  A
C59          O60   1.261       .  A
C59         C339   1.532       .  S
O60         Cr65   1.983       .  S
O61         Cr65   1.950       .  S
O61          C62   1.267       .  A
C62        C1104   1.454       .  S
Cr63         O66   1.741       .  S
Cr64         O66   1.689       .  S
Cr65         O66   1.635       .  S
O67         Cr85   2.018       .  S
O67          C75   1.276       .  A
O68         Cr85   1.909       .  S
O68          C69   1.290       .  A
C69          O70   1.345       .  A
C69         C613   1.550       .  S
O70         Cr86   2.237       .  S
O71         Cr86   2.102       .  S
O71          C72   1.304       .  A
C72          O73   1.275       .  A
C72         C638   1.560       .  S
O73         Cr87   2.043       .  S
O74         Cr87   1.924       .  S
O74          C75   1.246       .  A
C75        C1084   1.452       .  S
O76         Cr85   2.009       .  S
O76          C84   1.280       .  A
O77         Cr85   2.054       .  S
O77          C78   1.271       .  A
C78          O79   1.301       .  A
C78         C547   1.588       .  S
O79         Cr86   2.132       .  S
O80         Cr86   2.091       .  S
O80          C81   1.298       .  A
C81          O82   1.253       .  A
C81         C572   1.495       .  S
O82         Cr87   1.939       .  S
O83         Cr87   1.966       .  S
O83          C84   1.272       .  A
C84        C1077   1.471       .  S
Cr85         O88   1.681       .  S
Cr86         O88   1.716       .  S
Cr87         O88   1.756       .  S
O89        Cr107   2.006       .  S
O89          C97   1.275       .  A
O90        Cr107   1.859       .  S
O90          C91   1.251       .  A
C91          O92   1.361       .  A
C91         C582   1.528       .  S
O92        Cr108   2.308       .  S
O93        Cr108   2.115       .  S
O93          C94   1.299       .  A
C94          O95   1.255       .  A
C94         C616   1.526       .  S
O95        Cr109   1.983       .  S
O96        Cr109   1.956       .  S
O96          C97   1.260       .  A
C97        C1054   1.499       .  S
O98        Cr107   1.908       .  S
O98         C106   1.247       .  A
O99        Cr107   2.030       .  S
O99         C100   1.276       .  A
C100        O101   1.300       .  A
C100        C485   1.556       .  S
O101       Cr108   2.098       .  S
O102       Cr108   2.137       .  S
O102        C103   1.318       .  A
C103        O104   1.274       .  A
C103        C519   1.521       .  S
O104       Cr109   1.956       .  S
O105       Cr109   1.965       .  S
O105        C106   1.273       .  A
C106       C1064   1.417       .  S
Cr107       O110   1.628       .  S
Cr108       O110   1.699       .  S
Cr109       O110   1.758       .  S
O111       Cr129   1.989       .  S
O111        C119   1.263       .  A
O112       Cr129   1.955       .  S
O112        C113   1.250       .  A
C113        O114   1.319       .  A
C113        C454   1.562       .  S
O114       Cr130   2.180       .  S
O115       Cr130   2.161       .  S
O115        C116   1.322       .  A
C116        O117   1.280       .  A
C116        C563   1.572       .  S
O117       Cr131   2.010       .  S
O118       Cr131   1.946       .  S
O118        C119   1.256       .  A
C119       C1044   1.438       .  S
O120       Cr129   1.983       .  S
O120        C128   1.230       .  A
O121       Cr129   1.889       .  S
O121        C122   1.264       .  A
C122        O123   1.359       .  A
C122        C516   1.544       .  S
O123       Cr130   2.302       .  S
O124       Cr130   2.151       .  S
O124        C125   1.316       .  A
C125        O126   1.248       .  A
C125        C647   1.545       .  S
O126       Cr131   1.967       .  S
O127       Cr131   2.077       .  S
O127        C128   1.274       .  A
C128       C1034   1.460       .  S
Cr129       O132   1.645       .  S
Cr130       O132   1.695       .  S
Cr131       O132   1.752       .  S
O133       Cr151   2.072       .  S
O133        C141   1.282       .  A
O134       Cr151   2.009       .  S
O134        C135   1.269       .  A
C135        O136   1.313       .  A
C135        C476   1.565       .  S
O136       Cr152   2.130       .  S
O137       Cr152   2.191       .  S
O137        C138   1.324       .  A
C138        O139   1.250       .  A
C138        C457   1.558       .  S
O139       Cr153   1.939       .  S
O140       Cr153   1.907       .  S
O140        C141   1.230       .  A
C141       C1014   1.455       .  S
O142       Cr151   1.982       .  S
O142        C150   1.245       .  A
O143       Cr151   1.875       .  S
O143        C144   1.287       .  A
C144        O145   1.358       .  A
C144        C591   1.535       .  S
O145       Cr152   2.267       .  S
O146       Cr152   2.119       .  S
O146        C147   1.307       .  A
C147        O148   1.252       .  A
C147        C550   1.514       .  S
O148       Cr153   1.948       .  S
O149       Cr153   2.010       .  S
O149        C150   1.260       .  A
C150       C1027   1.474       .  S
Cr151       O154   1.678       .  S
Cr152       O154   1.660       .  S
Cr153       O154   1.727       .  S
O155       Cr173   2.060       .  S
O155        C163   1.276       .  A
O156       Cr173   1.963       .  S
O156        C157   1.248       .  A
C157        O158   1.313       .  A
C157        C370   1.555       .  S
O158       Cr174   2.157       .  S
O159       Cr174   2.165       .  S
O159        C160   1.322       .  A
C160        O161   1.285       .  A
C160        C541   1.598       .  S
O161       Cr175   2.053       .  S
O162       Cr175   1.944       .  S
O162        C163   1.254       .  A
C163        C994   1.469       .  S
O164       Cr173   1.967       .  S
O164        C172   1.223       .  A
O165       Cr173   1.879       .  S
O165        C166   1.275       .  A
C166        O167   1.353       .  A
C166        C432   1.538       .  S
O167       Cr174   2.275       .  S
O168       Cr174   2.113       .  S
O168        C169   1.303       .  A
C169        O170   1.249       .  A
C169        C466   1.523       .  S
O170       Cr175   1.958       .  S
O171       Cr175   2.108       .  S
O171        C172   1.272       .  A
C172       C1007   1.507       .  S
Cr173       O176   1.655       .  S
Cr174       O176   1.707       .  S
Cr175       O176   1.761       .  S
O177       Cr195   1.974       .  S
O177        C185   1.251       .  A
O178       Cr195   1.866       .  S
O178        C179   1.273       .  A
C179        O180   1.348       .  A
C179        C404   1.507       .  S
O180       Cr196   2.245       .  S
O181       Cr196   2.121       .  S
O181        C182   1.299       .  A
C182        O183   1.261       .  A
C182        C463   1.559       .  S
O183       Cr197   2.020       .  S
O184       Cr197   1.971       .  S
O184        C185   1.270       .  A
C185        C977   1.463       .  S
O186       Cr195   1.987       .  S
O186        C194   1.272       .  A
O187       Cr195   2.015       .  S
O187        C188   1.272       .  A
C188        O189   1.303       .  A
C188        C342   1.552       .  S
O189       Cr196   2.091       .  S
O190       Cr196   2.153       .  S
O190        C191   1.316       .  A
C191        O192   1.260       .  A
C191        C507   1.521       .  S
O192       Cr197   1.939       .  S
O193       Cr197   1.943       .  S
O193        C194   1.258       .  A
C194        C984   1.436       .  S
Cr195       O198   1.641       .  S
Cr196       O198   1.693       .  S
Cr197       O198   1.750       .  S
O199       Cr217   1.988       .  S
O199        C207   1.250       .  A
O200       Cr217   1.862       .  S
O200        C201   1.278       .  A
C201        O202   1.343       .  A
C201        C625   1.503       .  S
O202       Cr218   2.230       .  S
O203       Cr218   2.099       .  S
O203        C204   1.296       .  A
C204        O205   1.265       .  A
C204        C379   1.536       .  S
O205       Cr219   2.003       .  S
O206       Cr219   1.977       .  S
O206        C207   1.262       .  A
C207        C964   1.448       .  S
O208       Cr217   1.981       .  S
O208        C216   1.273       .  A
O209       Cr217   2.000       .  S
O209        C210   1.258       .  A
C210        O211   1.305       .  A
C210        C510   1.560       .  S
O211       Cr218   2.138       .  S
O212       Cr218   2.106       .  S
O212        C213   1.306       .  A
C213        O214   1.264       .  A
C213        C423   1.518       .  S
O214       Cr219   1.969       .  S
O215       Cr219   1.970       .  S
O215        C216   1.272       .  A
C216        C954   1.442       .  S
Cr217       O220   1.657       .  S
Cr218       O220   1.699       .  S
Cr219       O220   1.748       .  S
O221       Cr239   1.979       .  S
O221        C229   1.222       .  A
O222       Cr239   1.869       .  S
O222        C223   1.281       .  A
C223        O224   1.353       .  A
C223        C538   1.512       .  S
O224       Cr240   2.247       .  S
O225       Cr240   2.166       .  S
O225        C226   1.316       .  A
C226        O227   1.244       .  A
C226        C395   1.535       .  S
O227       Cr241   1.929       .  S
O228       Cr241   2.098       .  S
O228        C229   1.282       .  A
C229        C947   1.491       .  S
O230       Cr239   2.080       .  S
O230        C238   1.287       .  A
O231       Cr239   1.957       .  S
O231        C232   1.258       .  A
C232        O233   1.310       .  A
C232        C622   1.543       .  S
O233       Cr240   2.129       .  S
O234       Cr240   2.138       .  S
O234        C235   1.317       .  A
C235        O236   1.262       .  A
C235        C351   1.525       .  S
O236       Cr241   1.960       .  S
O237       Cr241   1.921       .  S
O237        C238   1.226       .  A
C238        C937   1.450       .  S
Cr239       O242   1.623       .  S
Cr240       O242   1.679       .  S
Cr241       O242   1.732       .  S
O243       Cr261   1.982       .  S
O243        C251   1.258       .  A
O244       Cr261   1.880       .  S
O244        C245   1.276       .  A
C245        O246   1.364       .  A
C245        C392   1.567       .  S
O246       Cr262   2.311       .  S
O247       Cr262   2.079       .  S
O247        C248   1.299       .  A
C248        O249   1.263       .  A
C248        C373   1.525       .  S
O249       Cr263   2.010       .  S
O250       Cr263   1.957       .  S
O250        C251   1.256       .  A
C251        C917   1.445       .  S
O252       Cr261   2.004       .  S
O252        C260   1.271       .  A
O253       Cr261   2.004       .  S
O253        C254   1.267       .  A
C254        O255   1.295       .  A
C254        C569   1.534       .  S
O255       Cr262   2.092       .  S
O256       Cr262   2.149       .  S
O256        C257   1.315       .  A
C257        O258   1.252       .  A
C257        C594   1.515       .  S
O258       Cr263   1.924       .  S
O259       Cr263   1.957       .  S
O259        C260   1.259       .  A
C260        C924   1.450       .  S
Cr261       O264   1.657       .  S
Cr262       O264   1.694       .  S
Cr263       O264   1.750       .  S
C265        C944   1.498       .  S
C265        C266   1.379       .  A
C265        C270   1.379       .  A
C266        C267   1.433       .  A
C266        H271   1.079       .  S
C267        C997   1.501       .  S
C267        C268   1.416       .  A
C268        C269   1.396       .  A
C268        H272   1.072       .  S
C269        C914   1.477       .  S
C269        C270   1.367       .  A
C270        H273   1.051       .  S
C274       C1024   1.525       .  S
C274        C275   1.398       .  A
C274        C279   1.398       .  A
C275        C276   1.394       .  A
C275        H280   1.066       .  S
C276       C1074   1.476       .  S
C276        C277   1.398       .  A
C277        C278   1.409       .  A
C277        H281   1.079       .  S
C278        C927   1.499       .  S
C278        C279   1.414       .  A
C279        H282   1.071       .  S
C283        C967   1.494       .  S
C283        C284   1.404       .  A
C283        C288   1.399       .  A
C284        C285   1.421       .  A
C284        H289   1.074       .  S
C285       C1117   1.491       .  S
C285        C286   1.404       .  A
C286        C287   1.383       .  A
C286        H290   1.077       .  S
C287        C934   1.492       .  S
C287        C288   1.397       .  A
C288        H291   1.081       .  S
C292        C957   1.509       .  S
C292        C293   1.410       .  A
C292        C297   1.408       .  A
C293        C294   1.395       .  A
C293        H298   1.062       .  S
C294       C1107   1.496       .  S
C294        C295   1.392       .  A
C295        C296   1.392       .  A
C295        H299   1.076       .  S
C296        C987   1.510       .  S
C296        C297   1.402       .  A
C297        H300   1.076       .  S
C301        C974   1.463       .  S
C301        C302   1.393       .  A
C301        C306   1.414       .  A
C302        C303   1.375       .  A
C302        H307   1.066       .  S
C303       C1004   1.505       .  S
C303        C304   1.367       .  A
C304        C305   1.404       .  A
C304        H308   1.078       .  S
C305       C1137   1.483       .  S
C305        C306   1.428       .  A
C306        H309   1.077       .  S
C310       C1047   1.477       .  S
C310        C311   1.421       .  A
C310        C315   1.397       .  A
C311        C312   1.408       .  A
C311        H316   1.080       .  S
C312       C1147   1.487       .  S
C312        C313   1.404       .  A
C313        C314   1.395       .  A
C313        H317   1.074       .  S
C314       C1017   1.500       .  S
C314        C315   1.387       .  A
C315        H318   1.083       .  S
C319       C1097   1.450       .  S
C319        C320   1.395       .  A
C319        C324   1.376       .  A
C320        C321   1.394       .  A
C320        H325   1.068       .  S
C321       C1067   1.476       .  S
C321        C322   1.431       .  A
C322        C323   1.375       .  A
C322        H326   1.071       .  S
C323       C1037   1.477       .  S
C323        C324   1.385       .  A
C324        H327   1.074       .  S
C328       C1127   1.490       .  S
C328        C329   1.409       .  A
C328        C333   1.375       .  A
C329        C330   1.396       .  A
C329        H334   1.033       .  S
C330       C1087   1.518       .  S
C330        C331   1.402       .  A
C331        C332   1.412       .  A
C331        H335   1.074       .  S
C332       C1057   1.492       .  S
C332        C333   1.390       .  A
C333        H336   1.072       .  S
O337       Cr355   2.056       .  S
O337        C345   1.269       .  A
O338       Cr355   1.849       .  S
O338        C339   1.268       .  A
C339        O340   1.359       .  A
O340       Cr356   2.295       .  S
O341       Cr356   2.119       .  S
O341        C342   1.302       .  A
C342        O343   1.270       .  A
O343       Cr357   2.017       .  S
O344       Cr357   1.950       .  S
O344        C345   1.256       .  A
C345        C904   1.488       .  S
O346       Cr355   1.975       .  S
O346        C354   1.263       .  A
O347       Cr355   2.055   1_545  S
O347        C348   1.280       .  A
C348        O349   1.302       .  A
O349       Cr356   2.109   1_545  S
O350       Cr356   2.136   1_545  S
O350        C351   1.312       .  A
C351        O352   1.262       .  A
O352       Cr357   1.954   1_545  S
O353       Cr357   1.960   1_545  S
O353        C354   1.268   1_545  A
C354        C894   1.431       .  S
Cr355       O358   1.647       .  S
Cr356       O358   1.683       .  S
Cr357       O358   1.728       .  S
C359        C874   1.482       .  S
C359        C360   1.386       .  A
C359        C364   1.384       .  A
C360        C361   1.420       .  A
C360        H365   1.069       .  S
C361        C897   1.464   1_545  S
C361        C362   1.393       .  A
C362        C363   1.384       .  A
C362        H366   1.085       .  S
C363        C884   1.427       .  S
C363        C364   1.396       .  A
C364        H367   1.081       .  S
O368       Cr386   2.070       .  S
O368        C376   1.283       .  A
O369       Cr386   1.954       .  S
O369        C370   1.250       .  A
C370        O371   1.322       .  A
O371       Cr387   2.176       .  S
O372       Cr387   2.269       .  S
O372        C373   1.350       .  A
C373        O374   1.267       .  A
O374       Cr388   1.866       .  S
O375       Cr388   1.981       .  S
O375        C376   1.227       .  A
C376        C864   1.479       .  S
O377       Cr386   1.937   1_655  S
O377        C385   1.253       .  A
O378       Cr386   2.014   1_655  S
O378        C379   1.277       .  A
C379        O380   1.305       .  A
O380       Cr387   2.100   1_655  S
O381       Cr387   2.184   1_655  S
O381        C382   1.316       .  A
C382        O383   1.236       .  A
O383       Cr388   1.923   1_655  S
O384       Cr388   2.011       .  S
O384        C385   1.272   1_455  A
C385        C887   1.421       .  S
Cr386       O389   1.719       .  S
Cr387       O389   1.684       .  S
Cr388       O389   1.623       .  S
O390       Cr408   1.958   1_545  S
O390        C398   1.254       .  A
O391       Cr408   2.022   1_545  S
O391        C392   1.258       .  A
C392        O393   1.300       .  A
O393       Cr409   2.116   1_545  S
O394       Cr409   2.135   1_545  S
O394        C395   1.309       .  A
C395        O396   1.254       .  A
O396       Cr410   1.964   1_545  S
O397       Cr410   1.900   1_545  S
O397        C398   1.240       .  A
C398        C844   1.422       .  S
O399       Cr408   1.984       .  S
O399        C407   1.267       .  A
O400       Cr408   1.978       .  S
O400        C401   1.256       .  A
C401        O402   1.297       .  A
O402       Cr409   2.110       .  S
O403       Cr409   2.088       .  S
O403        C404   1.286       .  A
C404        O405   1.236       .  A
O405       Cr410   1.950       .  S
O406       Cr410   1.976       .  S
O406        C407   1.261       .  A
C407        C854   1.467       .  S
Cr408       O411   1.814       .  S
Cr409       O411   1.747       .  S
Cr410       O411   1.831       .  S
C412        C847   1.488       .  S
C412        C413   1.395       .  A
C412        C417   1.432       .  A
C413        C414   1.364       .  A
C413        H418   1.075       .  S
C414        C867   1.493       .  S
C414        C415   1.387       .  A
C415        C416   1.382       .  A
C415        H419   1.055       .  S
C416        C834   1.489       .  S
C416        C417   1.404       .  A
C417        H420   1.065       .  S
O421       Cr439   1.983   1_655  S
O421        C429   1.250       .  A
O422       Cr439   1.849   1_655  S
O422        C423   1.265       .  A
C423        O424   1.356       .  A
O424       Cr440   2.286   1_655  S
O425       Cr440   2.093   1_655  S
O425        C426   1.293       .  A
C426        O427   1.268       .  A
O427       Cr441   2.042   1_655  S
O428       Cr441   1.937   1_655  S
O428        C429   1.259       .  A
C429        C824   1.430       .  S
O430       Cr439   1.951       .  S
O430        C438   1.262       .  A
O431       Cr439   1.999       .  S
O431        C432   1.266       .  A
C432        O433   1.301       .  A
O433       Cr440   2.098       .  S
O434       Cr440   2.165       .  S
O434        C435   1.322       .  A
C435        O436   1.256       .  A
O436       Cr441   1.929       .  S
O437       Cr441   1.964       .  S
O437        C438   1.266       .  A
C438        C814   1.425       .  S
Cr439       O442   1.637       .  S
Cr440       O442   1.691       .  S
Cr441       O442   1.750       .  S
C443        C857   1.528       .  S
C443        C444   1.388       .  A
C443        C448   1.393       .  A
C444        C445   1.399       .  A
C444        H449   1.066       .  S
C445        C817   1.495       .  S
C445        C446   1.418       .  A
C446        C447   1.422       .  A
C446        H450   1.077       .  S
C447        C804   1.506   1_556  S
C447        C448   1.399       .  A
C448        H451   1.073       .  S
O452       Cr470   1.921   1_554  S
O452        C460   1.266       .  A
O453       Cr470   2.011   1_554  S
O453        C454   1.263       .  A
C454        O455   1.310       .  A
O455       Cr471   2.141   1_554  S
O456       Cr471   2.316   1_554  S
O456        C457   1.364       .  A
C457        O458   1.268       .  A
O458       Cr472   1.897       .  S
O459       Cr472   1.959       .  S
O459        C460   1.239       .  A
C460        C794   1.414       .  S
O461       Cr470   1.986       .  S
O461        C469   1.276       .  A
O462       Cr470   1.973       .  S
O462        C463   1.272       .  A
C463        O464   1.320       .  A
O464       Cr471   2.168       .  S
O465       Cr471   2.139       .  S
O465        C466   1.314       .  A
C466        O467   1.251       .  A
O467       Cr472   1.940   1_556  S
O468       Cr472   1.959   1_556  S
O468        C469   1.267       .  A
C469        C807   1.449       .  S
Cr470       O473   1.736       .  S
Cr471       O473   1.679       .  S
Cr472       O473   1.655   1_554  S
O474       Cr492   2.076       .  S
O474        C482   1.276       .  A
O475       Cr492   1.971       .  S
O475        C476   1.253       .  A
C476        O477   1.315       .  A
O477       Cr493   2.175   1_455  S
O478       Cr493   2.277   1_455  S
O478        C479   1.354       .  A
C479        O480   1.266       .  A
O480       Cr494   1.855       .  S
O481       Cr494   1.983       .  S
O481        C482   1.226       .  A
C482        C774   1.455       .  S
O483       Cr492   1.947   1_655  S
O483        C491   1.250       .  A
O484       Cr492   1.990   1_655  S
O484        C485   1.273       .  A
C485        O486   1.319       .  A
O486       Cr493   2.159       .  S
O487       Cr493   2.144       .  S
O487        C488   1.313       .  A
C488        O489   1.258       .  A
O489       Cr494   1.959   1_655  S
O490       Cr494   2.009       .  S
O490        C491   1.266   1_455  A
C491        C784   1.433   1_655  S
Cr492       O495   1.730   1_455  S
Cr493       O495   1.688       .  S
Cr494       O495   1.624   1_455  S
C496        C797   1.475       .  S
C496        C497   1.390       .  A
C496        C501   1.408       .  A
C497        C498   1.394       .  A
C497        H502   1.071       .  S
C498        C777   1.489       .  S
C498        C499   1.392       .  A
C499        C500   1.404       .  A
C499        H503   1.084       .  S
C500        C764   1.462       .  S
C500        C501   1.393       .  A
C501        H504   1.080       .  S
O505       Cr523   1.979       .  S
O505        C513   1.267       .  A
O506       Cr523   2.013   1_556  S
O506        C507   1.272       .  A
C507        O508   1.295       .  A
O508       Cr524   2.059       .  S
O509       Cr524   2.167       .  S
O509        C510   1.319       .  A
C510        O511   1.269       .  A
O511       Cr525   1.985       .  S
O512       Cr525   1.926       .  S
O512        C513   1.264   1_556  A
C513        C754   1.438       .  S
O514       Cr523   1.994       .  S
O514        C522   1.263       .  A
O515       Cr523   1.874       .  S
O515        C516   1.272       .  A
C516        O517   1.360       .  A
O517       Cr524   2.293   1_554  S
O518       Cr524   2.101   1_554  S
O518        C519   1.298       .  A
C519        O520   1.256       .  A
O520       Cr525   1.981   1_554  S
O521       Cr525   1.975   1_554  S
O521        C522   1.268       .  A
C522        C744   1.455       .  S
Cr523       O526   1.658   1_554  S
Cr524       O526   1.680       .  S
Cr525       O526   1.740       .  S
C527        C734   1.427       .  S
C527        C528   1.377       .  A
C527        C532   1.393       .  A
C528        C529   1.392       .  A
C528        H533   1.086       .  S
C529        C787   1.474   1_655  S
C529        C530   1.423       .  A
C530        C531   1.400       .  A
C530        H534   1.073       .  S
C531        C747   1.504       .  S
C531        C532   1.389       .  A
C532        H535   1.077       .  S
O536       Cr554   2.001       .  S
O536        C544   1.255       .  A
O537       Cr554   1.848       .  S
O537        C538   1.265       .  A
C538        O539   1.353       .  A
O539       Cr555   2.270   1_556  S
O540       Cr555   2.160   1_556  S
O540        C541   1.310       .  A
C541        O542   1.271       .  A
O542       Cr556   2.048   1_556  S
O543       Cr556   1.926   1_556  S
O543        C544   1.259       .  A
C544        C837   1.445       .  S
O545       Cr554   1.937       .  S
O545        C553   1.257   1_556  A
O546       Cr554   2.019   1_554  S
O546        C547   1.268       .  A
C547        O548   1.311       .  A
O548       Cr555   2.162       .  S
O549       Cr555   2.123       .  S
O549        C550   1.314       .  A
C550        O551   1.264       .  A
O551       Cr556   1.953       .  S
O552       Cr556   1.977       .  S
O552        C553   1.276       .  A
C553        C724   1.429       .  S
Cr554       O557   1.643   1_556  S
Cr555       O557   1.695       .  S
Cr556       O557   1.748       .  S
O558       Cr576   2.013       .  S
O558        C566   1.296       .  A
O559       Cr576   2.015       .  S
O559        C560   1.275       .  A
C560        O561   1.310       .  A
O561       Cr577   2.131   1_565  S
O562       Cr577   2.132   1_565  S
O562        C563   1.305       .  A
C563        O564   1.268       .  A
O564       Cr578   2.039   1_565  S
O565       Cr578   1.912       .  S
O565        C566   1.237   1_545  A
C566        C767   1.466       .  S
O567       Cr576   1.952   1_545  S
O567        C575   1.267       .  A
O568       Cr576   2.016   1_545  S
O568        C569   1.275       .  A
C569        O570   1.301       .  A
O570       Cr577   2.094       .  S
O571       Cr577   2.284       .  S
O571        C572   1.357       .  A
C572        O573   1.260       .  A
O573       Cr578   1.819       .  S
O574       Cr578   2.008       .  S
O574        C575   1.263       .  A
C575        C714   1.463       .  S
Cr576       O579   1.719       .  S
Cr577       O579   1.672   1_545  S
Cr578       O579   1.641   1_545  S
O580       Cr598   1.989   1_655  S
O580        C588   1.257       .  A
O581       Cr598   1.900   1_655  S
O581        C582   1.239       .  A
C582        O583   1.321       .  A
O583       Cr599   2.183   1_655  S
O584       Cr599   2.136   1_655  S
O584        C585   1.306       .  A
C585        O586   1.266       .  A
O586       Cr600   2.058   1_655  S
O587       Cr600   1.925   1_655  S
O587        C588   1.233       .  A
C588        C704   1.426       .  S
O589       Cr598   1.919       .  S
O589        C597   1.225       .  A
O590       Cr598   1.978       .  S
O590        C591   1.247       .  A
C591        O592   1.293       .  A
O592       Cr599   2.111       .  S
O593       Cr599   2.139       .  S
O593        C594   1.310       .  A
C594        O595   1.253       .  A
O595       Cr600   1.937       .  S
O596       Cr600   2.059       .  S
O596        C597   1.271       .  A
C597        C694   1.446       .  S
Cr598       O601   1.797       .  S
Cr599       O601   1.711       .  S
Cr600       O601   1.800       .  S
C602        C697   1.492       .  S
C602        C603   1.389       .  A
C602        C607   1.398       .  A
C603        C604   1.393       .  A
C603        H608   1.081       .  S
C604        C727   1.483       .  S
C604        C605   1.418       .  A
C605        C606   1.406       .  A
C605        H609   1.069       .  S
C606        C717   1.494       .  S
C606        C607   1.399       .  A
C607        H610   1.080       .  S
O611       Cr629   1.953       .  S
O611        C619   1.263       .  A
O612       Cr629   2.001       .  S
O612        C613   1.274       .  A
C613        O614   1.309       .  A
O614       Cr630   2.134   1_554  S
O615       Cr630   2.095   1_554  S
O615        C616   1.303       .  A
C616        O617   1.263       .  A
O617       Cr631   1.984   1_554  S
O618       Cr631   1.994       .  S
O618        C619   1.271   1_556  A
C619        C684   1.439       .  S
O620       Cr629   2.010   1_556  S
O620        C628   1.275       .  A
O621       Cr629   1.984   1_556  S
O621        C622   1.259       .  A
C622        O623   1.302       .  A
O623       Cr630   2.123       .  S
O624       Cr630   2.220       .  S
O624        C625   1.341       .  A
C625        O626   1.279       .  A
O626       Cr631   1.861       .  S
O627       Cr631   1.986       .  S
O627        C628   1.257       .  A
C628        C877   1.470       .  S
Cr629       O632   1.733       .  S
Cr630       O632   1.689   1_556  S
Cr631       O632   1.648   1_556  S
O633       Cr651   1.977       .  S
O633        C641   1.260       .  A
O634       Cr651   1.867       .  S
O634        C635   1.280       .  A
C635        O636   1.362       .  A
O636       Cr652   2.294   1_545  S
O637       Cr652   2.137   1_545  S
O637        C638   1.309       .  A
C638        O639   1.268       .  A
O639       Cr653   2.005   1_545  S
O640       Cr653   1.946   1_545  S
O640        C641   1.251       .  A
C641        C674   1.457       .  S
O642       Cr651   1.965   1_565  S
O642        C650   1.270       .  A
O643       Cr651   1.991   1_565  S
O643        C644   1.251       .  A
C644        O645   1.304       .  A
O645       Cr652   2.122       .  S
O646       Cr652   2.173       .  S
O646        C647   1.320       .  A
C647        O648   1.245       .  A
O648       Cr653   1.933       .  S
O649       Cr653   1.932       .  S
O649        C650   1.261       .  A
C650        C737   1.405       .  S
Cr651       O654   1.662   1_545  S
Cr652       O654   1.695       .  S
Cr653       O654   1.754       .  S
C655        C677   1.507       .  S
C655        C656   1.395       .  A
C655        C660   1.394       .  A
C656        C657   1.377       .  A
C656        H661   1.072       .  S
C657        C707   1.496       .  S
C657        C658   1.410       .  A
C658        C659   1.418       .  A
C658        H662   1.064       .  S
C659        C687   1.501       .  S
C659        C660   1.417       .  A
C660        H663   1.077       .  S
C664        C757   1.472       .  S
C664        C665   1.424       .  A
C664        C669   1.375       .  A
C665        C666   1.384       .  A
C665        H670   1.068       .  S
C666        C907   1.489       .  S
C666        C667   1.390       .  A
C667        C668   1.379       .  A
C667        H671   1.071       .  S
C668        C827   1.435       .  S
C668        C669   1.380       .  A
C669        H672   1.054       .  S
C673        C674   1.399       .  A
C673        C678   1.384       .  A
C673        H680   1.078       .  S
C674        C675   1.398       .  A
C675        C676   1.396       .  A
C675        F682   1.358       .  S
C676        C677   1.421       .  A
C676        H681   1.080       .  S
C677        C678   1.412       .  A
C678        F679   1.352       .  S
C683        C684   1.386       .  A
C683        C688   1.389       .  A
C683        H690   1.083       .  S
C684        C685   1.403       .  A
C685        C686   1.378       .  A
C685        F692   1.358       .  S
C686        C687   1.404       .  A
C686        H691   1.081       .  S
C687        C688   1.425       .  A
C688        F689   1.350       .  S
C693        C694   1.379       .  A
C693        C698   1.383       .  A
C693        H700   1.084       .  S
C694        C695   1.411       .  A
C695        C696   1.386       .  A
C695        F702   1.351   1_455  S
C696        C697   1.386       .  A
C696        H701   1.072       .  S
C697        C698   1.427       .  A
C698        F699   1.338       .  S
C703        C704   1.406       .  A
C703        C708   1.390       .  A
C703        H710   1.084       .  S
C704        C705   1.378       .  A
C705        C706   1.369       .  A
C705        F712   1.358       .  S
C706        C707   1.408       .  A
C706        H711   1.044       .  S
C707        C708   1.410       .  A
C708        F709   1.358   1_655  S
C713        C714   1.390       .  A
C713        C718   1.396       .  A
C713        H720   1.084       .  S
C714        C715   1.405       .  A
C715        C716   1.402       .  A
C715        F722   1.356       .  S
C716        C717   1.416       .  A
C716        H721   1.082       .  S
C717        C718   1.429       .  A
C718        F719   1.356       .  S
C723        C724   1.399       .  A
C723        C728   1.389       .  A
C723        H730   1.083       .  S
C724        C725   1.391       .  A
C725        C726   1.378       .  A
C725        F732   1.359   1_554  S
C726        C727   1.412       .  A
C726        H731   1.080       .  S
C727        C728   1.404       .  A
C728        F729   1.350       .  S
C733        C734   1.396       .  A
C733        C738   1.366       .  A
C733        H740   1.069       .  S
C734        C735   1.405       .  A
C735        C736   1.373       .  A
C735        F742   1.342       .  S
C736        C737   1.382       .  A
C736        H741   1.084       .  S
C737        C738   1.401       .  A
C738        F739   1.360       .  S
C743        C744   1.408       .  A
C743        C748   1.395       .  A
C743        H750   1.080       .  S
C744        C745   1.401       .  A
C745        C746   1.389       .  A
C745        F752   1.358       .  S
C746        C747   1.410       .  A
C746        H751   1.081       .  S
C747        C748   1.408       .  A
C748        F749   1.353       .  S
C753        C754   1.401       .  A
C753        C758   1.396       .  A
C753        H760   1.081       .  S
C754        C755   1.412   1_554  A
C755        C756   1.388       .  A
C755        F762   1.359       .  S
C756        C757   1.397       .  A
C756        H761   1.078       .  S
C757        C758   1.390   1_556  A
C758        F759   1.349       .  S
C763        C764   1.421       .  A
C763        C768   1.375       .  A
C763        H770   1.052       .  S
C764        C765   1.395       .  A
C765        C766   1.406       .  A
C765        F772   1.351       .  S
C766        C767   1.392       .  A
C766        H771   1.072   1_565  S
C767        C768   1.374       .  A
C768        F769   1.355       .  S
C773        C774   1.412       .  A
C773        C778   1.380       .  A
C773        H780   1.052       .  S
C774        C775   1.387       .  A
C775        C776   1.397       .  A
C775        F782   1.355       .  S
C776        C777   1.430       .  A
C776        H781   1.075       .  S
C777        C778   1.375       .  A
C778        F779   1.357       .  S
C783        C784   1.411       .  A
C783        C788   1.386       .  A
C783        H790   1.082       .  S
C784        C785   1.386       .  A
C785        C786   1.396       .  A
C785        F792   1.357       .  S
C786        C787   1.415       .  A
C786        H791   1.082       .  S
C787        C788   1.398       .  A
C788        F789   1.358       .  S
C793        C794   1.402       .  A
C793        C798   1.388       .  A
C793        H800   1.084       .  S
C794        C795   1.376       .  A
C795        C796   1.363       .  A
C795        F802   1.362       .  S
C796        C797   1.394       .  A
C796        H801   1.066       .  S
C797        C798   1.414       .  A
C798        F799   1.350       .  S
C803        C804   1.412   1_556  A
C803        C808   1.381       .  A
C803        H810   1.078   1_556  S
C804        C805   1.402       .  A
C805        C806   1.390   1_554  A
C805        F812   1.342       .  S
C806        C807   1.401       .  A
C806        H811   1.084       .  S
C807        C808   1.398       .  A
C808        F809   1.359       .  S
C813        C814   1.392       .  A
C813        C818   1.379       .  A
C813        H820   1.084       .  S
C814        C815   1.387       .  A
C815        C816   1.383       .  A
C815        F822   1.358       .  S
C816        C817   1.408       .  A
C816        H821   1.064       .  S
C817        C818   1.417       .  A
C818        F819   1.358   1_455  S
C823        C824   1.401       .  A
C823        C828   1.391       .  A
C823        H830   1.083       .  S
C824        C825   1.390       .  A
C825        C826   1.381       .  A
C825        F832   1.359       .  S
C826        C827   1.411       .  A
C826        H831   1.085       .  S
C827        C828   1.406       .  A
C828        F829   1.355       .  S
C833        C834   1.418       .  A
C833        C838   1.396       .  A
C833        H840   1.083       .  S
C834        C835   1.421       .  A
C835        C836   1.392       .  A
C835        F842   1.349       .  S
C836        C837   1.389       .  A
C836        H841   1.084       .  S
C837        C838   1.398       .  A
C838        F839   1.356       .  S
C843        C844   1.404       .  A
C843        C848   1.378       .  A
C843        H850   1.084       .  S
C844        C845   1.402       .  A
C845        C846   1.386       .  A
C845        F852   1.358       .  S
C846        C847   1.417       .  A
C846        H851   1.081       .  S
C847        C848   1.390       .  A
C848        F849   1.333       .  S
C853        C854   1.392       .  A
C853        C858   1.389       .  A
C853        H860   1.085       .  S
C854        C855   1.404       .  A
C855        C856   1.402       .  A
C855        F862   1.358       .  S
C856        C857   1.414       .  A
C856        H861   1.078       .  S
C857        C858   1.420       .  A
C858        F859   1.341       .  S
C863        C864   1.418       .  A
C863        C868   1.388       .  A
C863        H870   1.055       .  S
C864        C865   1.394       .  A
C865        C866   1.399       .  A
C865        F872   1.353       .  S
C866        C867   1.414       .  A
C866        H871   1.071       .  S
C867        C868   1.380       .  A
C868        F869   1.357       .  S
C873        C874   1.407       .  A
C873        C878   1.384       .  A
C873        H880   1.078       .  S
C874        C875   1.417       .  A
C875        C876   1.395       .  A
C875        F882   1.357       .  S
C876        C877   1.398       .  A
C876        H881   1.084       .  S
C877        C878   1.400       .  A
C878        F879   1.346       .  S
C883        C884   1.416       .  A
C883        C888   1.383       .  A
C883        H890   1.080       .  S
C884        C885   1.392       .  A
C885        C886   1.374       .  A
C885        F892   1.357       .  S
C886        C887   1.406       .  A
C886        H891   1.085   1_655  S
C887        C888   1.387       .  A
C888        F889   1.357       .  S
C893        C894   1.405       .  A
C893        C898   1.383       .  A
C893        H900   1.082       .  S
C894        C895   1.394       .  A
C895        C896   1.393       .  A
C895        F902   1.357       .  S
C896        C897   1.412       .  A
C896        H901   1.082       .  S
C897        C898   1.406       .  A
C898        F899   1.357       .  S
C903        C904   1.421       .  A
C903        C908   1.386       .  A
C903        H910   1.076       .  S
C904        C905   1.405       .  A
C905        C906   1.411       .  A
C905        F912   1.357       .  S
C906        C907   1.418       .  A
C906        H911   1.082       .  S
C907        C908   1.387       .  A
C908        F909   1.358       .  S
C913        C914   1.399       .  A
C913        C918   1.384       .  A
C913        H920   1.063       .  S
C914        C915   1.413       .  A
C915        C916   1.383       .  A
C915        F922   1.348       .  S
C916        C917   1.397       .  A
C916        H921   1.081       .  S
C917        C918   1.398       .  A
C918        F919   1.358       .  S
C923        C924   1.405       .  A
C923        C928   1.384       .  A
C923        H930   1.083       .  S
C924        C925   1.387       .  A
C925        C926   1.392       .  A
C925        F932   1.357       .  S
C926        C927   1.420       .  A
C926        H931   1.077       .  S
C927        C928   1.407       .  A
C928        F929   1.357       .  S
C933        C934   1.413       .  A
C933        C938   1.404       .  A
C933        H940   1.078       .  S
C934        C935   1.372       .  A
C935        C936   1.396       .  A
C935        F942   1.350       .  S
C936        C937   1.402       .  A
C936        H941   1.064       .  S
C937        C938   1.410       .  A
C938        F939   1.358       .  S
C943        C944   1.424       .  A
C943        C948   1.413       .  A
C943        H950   1.073       .  S
C944        C945   1.384       .  A
C945        C946   1.390       .  A
C945        F952   1.356       .  S
C946        C947   1.410       .  A
C946        H951   1.052       .  S
C947        C948   1.397       .  A
C948        F949   1.352       .  S
C953        C954   1.392       .  A
C953        C958   1.375       .  A
C953        H960   1.085       .  S
C954        C955   1.393       .  A
C955        C956   1.389       .  A
C955        F962   1.358       .  S
C956        C957   1.419       .  A
C956        H961   1.074       .  S
C957        C958   1.424       .  A
C958        F959   1.354       .  S
C963        C964   1.389       .  A
C963        C968   1.386       .  A
C963        H970   1.084       .  S
C964        C965   1.404       .  A
C965        C966   1.395       .  A
C965        F972   1.356       .  S
C966        C967   1.406       .  A
C966        H971   1.082       .  S
C967        C968   1.420       .  A
C968        F969   1.349       .  S
C973        C974   1.420       .  A
C973        C978   1.390       .  A
C973        H980   1.083       .  S
C974        C975   1.418       .  A
C975        C976   1.393       .  A
C975        F982   1.355       .  S
C976        C977   1.395       .  A
C976        H981   1.084       .  S
C977        C978   1.393       .  A
C978        F979   1.356       .  S
C983        C984   1.375       .  A
C983        C988   1.375       .  A
C983        H990   1.085       .  S
C984        C985   1.401       .  A
C985        C986   1.390       .  A
C985        F992   1.358       .  S
C986        C987   1.410       .  A
C986        H991   1.076       .  S
C987        C988   1.426       .  A
C988        F989   1.336       .  S
C993        C994   1.422       .  A
C993        C998   1.401       .  A
C993       H1000   1.081       .  S
C994        C995   1.393       .  A
C995        C996   1.405       .  A
C995       F1002   1.350       .  S
C996        C997   1.411       .  A
C996       H1001   1.076       .  S
C997        C998   1.396       .  A
C998        F999   1.357       .  S
C1003      C1004   1.375       .  A
C1003      C1008   1.390       .  A
C1003      H1010   1.082       .  S
C1004      C1005   1.420       .  A
C1005      C1006   1.408       .  A
C1005      F1012   1.346       .  S
C1006      C1007   1.400       .  A
C1006      H1011   1.082       .  S
C1007      C1008   1.437       .  A
C1008      F1009   1.346       .  S
C1013      C1014   1.404       .  A
C1013      C1018   1.384       .  A
C1013      H1020   1.085       .  S
C1014      C1015   1.422       .  A
C1015      C1016   1.387       .  A
C1015      F1022   1.345       .  S
C1016      C1017   1.373       .  A
C1016      H1021   1.082       .  S
C1017      C1018   1.421       .  A
C1018      F1019   1.342       .  S
C1023      C1024   1.417       .  A
C1023      C1028   1.399       .  A
C1023      H1030   1.077       .  S
C1024      C1025   1.427       .  A
C1025      C1026   1.397       .  A
C1025      F1032   1.346       .  S
C1026      C1027   1.392       .  A
C1026      H1031   1.084       .  S
C1027      C1028   1.401       .  A
C1028      F1029   1.355       .  S
C1033      C1034   1.415       .  A
C1033      C1038   1.385       .  A
C1033      H1040   1.059       .  S
C1034      C1035   1.391       .  A
C1035      C1036   1.403       .  A
C1035      F1042   1.355       .  S
C1036      C1037   1.413       .  A
C1036      H1041   1.076       .  S
C1037      C1038   1.381       .  A
C1038      F1039   1.357       .  S
C1043      C1044   1.387       .  A
C1043      C1048   1.383       .  A
C1043      H1050   1.084       .  S
C1044      C1045   1.410       .  A
C1045      C1046   1.379       .  A
C1045      F1052   1.358       .  S
C1046      C1047   1.402       .  A
C1046      H1051   1.084       .  S
C1047      C1048   1.420       .  A
C1048      F1049   1.354       .  S
C1053      C1054   1.387       .  A
C1053      C1058   1.396       .  A
C1053      H1060   1.085       .  S
C1054      C1055   1.399       .  A
C1055      C1056   1.402       .  A
C1055      F1062   1.355       .  S
C1056      C1057   1.430       .  A
C1056      H1061   1.077       .  S
C1057      C1058   1.433       .  A
C1058      F1059   1.340       .  S
C1063      C1064   1.398       .  A
C1063      C1068   1.384       .  A
C1063      H1070   1.084       .  S
C1064      C1065   1.408       .  A
C1065      C1066   1.393       .  A
C1065      F1072   1.357       .  S
C1066      C1067   1.406       .  A
C1066      H1071   1.083       .  S
C1067      C1068   1.409       .  A
C1068      F1069   1.352       .  S
C1073      C1074   1.407       .  A
C1073      C1078   1.380       .  A
C1073      H1080   1.063       .  S
C1074      C1075   1.390       .  A
C1075      C1076   1.401       .  A
C1075      F1082   1.347       .  S
C1076      C1077   1.408       .  A
C1076      H1081   1.074       .  S
C1077      C1078   1.401       .  A
C1078      F1079   1.359       .  S
C1083      C1084   1.394       .  A
C1083      C1088   1.402       .  A
C1083      H1090   1.078       .  S
C1084      C1085   1.399       .  A
C1085      C1086   1.389       .  A
C1085      F1092   1.359       .  S
C1086      C1087   1.401       .  A
C1086      H1091   1.053       .  S
C1087      C1088   1.387       .  A
C1088      F1089   1.333       .  S
C1093      C1094   1.394       .  A
C1093      C1098   1.380       .  A
C1093      H1100   1.085       .  S
C1094      C1095   1.392       .  A
C1095      C1096   1.385       .  A
C1095      F1102   1.357       .  S
C1096      C1097   1.416       .  A
C1096      H1101   1.083       .  S
C1097      C1098   1.408       .  A
C1098      F1099   1.359       .  S
C1103      C1104   1.401       .  A
C1103      C1108   1.381       .  A
C1103      H1110   1.082       .  S
C1104      C1105   1.393       .  A
C1105      C1106   1.386       .  A
C1105      F1112   1.358       .  S
C1106      C1107   1.410       .  A
C1106      H1111   1.059       .  S
C1107      C1108   1.394       .  A
C1108      F1109   1.337       .  S
C1113      C1114   1.401       .  A
C1113      C1118   1.389       .  A
C1113      H1120   1.083       .  S
C1114      C1115   1.417       .  A
C1115      C1116   1.401       .  A
C1115      F1122   1.358       .  S
C1116      C1117   1.403       .  A
C1116      H1121   1.083       .  S
C1117      C1118   1.409       .  A
C1118      F1119   1.355       .  S
C1123      C1124   1.405       .  A
C1123      C1128   1.392       .  A
C1123      H1130   1.079       .  S
C1124      C1125   1.391       .  A
C1125      C1126   1.393       .  A
C1125      F1132   1.353       .  S
C1126      C1127   1.418       .  A
C1126      H1131   1.073       .  S
C1127      C1128   1.410       .  A
C1128      F1129   1.341       .  S
C1133      C1134   1.401       .  A
C1133      C1138   1.376       .  A
C1133      H1140   1.084       .  S
C1134      C1135   1.386       .  A
C1135      C1136   1.384       .  A
C1135      F1142   1.357       .  S
C1136      C1137   1.413       .  A
C1136      H1141   1.080       .  S
C1137      C1138   1.407       .  A
C1138      F1139   1.346       .  S
C1143      C1144   1.401       .  A
C1143      C1148   1.391       .  A
C1143      H1150   1.083       .  S
C1144      C1145   1.393       .  A
C1145      C1146   1.390       .  A
C1145      F1152   1.357       .  S
C1146      C1147   1.417       .  A
C1146      H1151   1.081       .  S
C1147      C1148   1.412       .  A
C1148      F1149   1.354       .  S
