geometry optimzed in LAMMPS
_audit_creation_date              2020-11-30 
_audit_creation_method            'lammps2cif' 
_symmetry_space_group_name_H-M    'P1' 
_symmetry_Int_Tables_number       1 
_symmetry_cell_setting            triclinic 
loop_ 
_symmetry_equiv_pos_as_xyz 
  x,y,z 
_cell_length_a                    30.246691988410888 
_cell_length_b                    31.031934178651507 
_cell_length_c                    32.47342458128614 
_cell_angle_alpha                 87.76317660158881 
_cell_angle_beta                  90.43633822500206 
_cell_angle_gamma                 90.94157103166128 
loop_ 
_atom_site_label 
_atom_site_type_symbol 
_atom_site_fract_x 
_atom_site_fract_y 
_atom_site_fract_z 
_atom_site_charge 
C1          C  0.50718251  0.23950915  0.52254528     0.00200
C2          C  0.00631571  0.24590679  0.48080598     0.00200
C3          C  0.23606110  0.50137042  0.52439919     0.00200
C4          C  0.23105188  0.00296933  0.48241587     0.00200
C5          C  0.13252445  0.28838358  0.64156396     0.42100
N6          N  0.16039237  0.26099389  0.69667928     0.00990
C7          C  0.33671661  0.32959121  0.81401652    -0.06890
H8          H  0.35567838  0.33518828  0.64588233     0.06480
C9          C  0.34116575  0.17818825  0.65864624    -0.07240
Co10       Co  0.22248348  0.31955142  0.74148172     0.74180
N11         N  0.30511088  0.32440914  0.69234599    -0.26420
Co12       Co  0.32665076  0.27825206  0.73713170     0.74070
C13         C  0.36574135  0.21306558  0.63641042     0.42200
N14         N  0.23639163  0.15765331  0.69570372     0.00600
N15         N  0.34067989  0.23664656  0.69224858     0.00710
N16         N  0.26847990  0.35691651  0.82147131    -0.47270
H17         H  0.16601870  0.35458080  0.65187707     0.06470
N18         N  0.26502459  0.33976396  0.69550377     0.00990
N19         N  0.34547352  0.23163363  0.78210060     0.00730
C20         C  0.37068595  0.19999443  0.83661668     0.42340
N21         N  0.19596725  0.17291471  0.69499954    -0.25870
C22         C  0.16016326  0.32224305  0.81288701    -0.06790
N23         N  0.13479759  0.25230222  0.66518204    -0.46980
N24         N  0.37342892  0.23684282  0.81326562    -0.47200
C25         C  0.12434948  0.29561777  0.82897597     0.42110
N26         N  0.27111901  0.33478763  0.78705028     0.00980
N27         N  0.19608540  0.17135948  0.78571439    -0.25900
N28         N  0.17588157  0.30105281  0.69593541    -0.26390
N29         N  0.23546343  0.15362201  0.78652876     0.00620
H30         H  0.13801414  0.16340436  0.82328401     0.06510
H31         H  0.33139599  0.13774060  0.82510615     0.06550
N32         N  0.31075352  0.31861626  0.78283527    -0.26440
N33         N  0.32573604  0.19642595  0.69271707    -0.26050
N34         N  0.15938219  0.25973055  0.78535109     0.00990
C35         C  0.28810340  0.36841834  0.63857247     0.42380
C36         C  0.17495485  0.15751815  0.66156161    -0.07300
N37         N  0.32653334  0.19299099  0.78335519    -0.26050
H38         H  0.33446667  0.14555253  0.64964236     0.06530
N39         N  0.25371545  0.36586008  0.66434550    -0.47270
H40         H  0.14143432  0.16446185  0.65198836     0.06520
C41         C  0.20016783  0.12454308  0.83825096     0.42220
C42         C  0.15906152  0.32158565  0.66195626    -0.06800
Co43       Co  0.17703587  0.21580102  0.74078942     0.73820
N44         N  0.24496032  0.13326066  0.66448878    -0.46990
C45         C  0.30905852  0.35411100  0.84006955     0.42480
N46         N  0.12513534  0.25713756  0.81077312    -0.46980
Co47       Co  0.28174994  0.17385222  0.73986351     0.73890
C48         C  0.34076934  0.17059954  0.81643339    -0.07310
C49         C  0.32317056  0.34174382  0.65737055    -0.06870
N50         N  0.17915218  0.29796273  0.78561079    -0.26400
N51         N  0.36462942  0.24757843  0.65973929    -0.47160
H52         H  0.37077631  0.32043418  0.81848711     0.06490
C53         C  0.17182290  0.15521590  0.81689157    -0.07280
Cl54       Cl  0.25190069  0.24676532  0.74006542    -0.50280
C55         C  0.20829606  0.13198220  0.64111720     0.42250
H56         H  0.16715282  0.35610809  0.81696872     0.06460
N57         N  0.23917691  0.12430462  0.81756163    -0.46990
C58         C  0.13402845  0.21706116  0.35718517     0.42100
N59         N  0.16330855  0.24375158  0.30224590     0.00990
C60         C  0.33488017  0.17217994  0.18571355    -0.06890
H61         H  0.35175128  0.16644815  0.35737068     0.06480
C62         C  0.35284997  0.32365276  0.33759013    -0.07240
Co63       Co  0.22198181  0.18354076  0.25798917     0.74180
N64         N  0.30372657  0.17721486  0.30806529    -0.26420
Co65       Co  0.32732569  0.22316627  0.26244313     0.74070
C66         C  0.37623026  0.28825691  0.35967555     0.42200
N67         N  0.24499293  0.34649608  0.30258431     0.00600
N68         N  0.34418149  0.26451171  0.30634487     0.00710
N69         N  0.26676132  0.14256784  0.17904709    -0.47270
H70         H  0.16428874  0.15033671  0.34718906     0.06470
N71         N  0.26311611  0.16228441  0.30361029     0.00990
N72         N  0.34772699  0.26919222  0.21732213     0.00730
C73         C  0.37339826  0.30019865  0.16298629     0.42340
N74         N  0.20385285  0.33185081  0.30431846    -0.25870
C75         C  0.16629140  0.18253544  0.18367183    -0.06790
N76         N  0.13818618  0.25296890  0.33338967    -0.46980
N77         N  0.37478604  0.26329504  0.18618711    -0.47200
C78         C  0.13521918  0.20966404  0.16239415     0.42110
N79         N  0.26950870  0.16660859  0.21246488     0.00980
N80         N  0.20142578  0.33230600  0.21275688    -0.25900
N81         N  0.17674792  0.20344227  0.30322987    -0.26390
N82         N  0.24139847  0.34987980  0.21156829     0.00620
H83         H  0.14208370  0.34128927  0.17678596     0.06510
H84         H  0.33654801  0.36272786  0.17335154     0.06550
N85         N  0.30944599  0.18328360  0.21659182    -0.26440
N86         N  0.33260387  0.30532702  0.30527258    -0.26050
N87         N  0.16234737  0.24405900  0.21267485     0.00990
C88         C  0.28275988  0.13268115  0.36130160     0.42380
C89         C  0.18570853  0.34805636  0.33853278    -0.07300
N90         N  0.33043146  0.30800733  0.21555116    -0.26050
H91         H  0.35174676  0.35712860  0.34418936     0.06530
N92         N  0.24967320  0.13623418  0.33399178    -0.47270
H93         H  0.15241345  0.34164135  0.34924762     0.06520
C94         C  0.20490715  0.38002290  0.16058156     0.42220
C95         C  0.15903678  0.18342230  0.33713983    -0.06800
Co96       Co  0.18148813  0.28844023  0.25796661     0.73820
N97         N  0.25639321  0.37114499  0.33319360    -0.46990
C98         C  0.30701479  0.14628757  0.15999527     0.42480
N99         N  0.13289044  0.24751681  0.18201248    -0.46980
Co100      Co  0.28811176  0.32870657  0.25844495     0.73890
C101        C  0.34486742  0.32994349  0.18242528    -0.07310
C102        C  0.31964133  0.15970017  0.34409858    -0.06870
N103        N  0.18098572  0.20593022  0.21386305    -0.26400
N104        N  0.36969773  0.25331060  0.33763921    -0.47160
H105        H  0.36938804  0.18080162  0.18181369     0.06490
C106        C  0.17661220  0.34887828  0.18216601    -0.07280
Cl107      Cl  0.25467443  0.25606591  0.25921228    -0.50280
C108        C  0.22150515  0.37376806  0.35809180     0.42250
H109        H  0.17462668  0.14935023  0.17887593     0.06460
N110        N  0.24461910  0.38009513  0.18107348    -0.46990
O111        O  0.04421240  0.39790805  0.97305116    -0.80500
O112        O  0.04255411  0.10669585  0.02629247    -0.80520
O113        O  0.04686788  0.02783254  0.92262473    -0.80530
O114        O  0.04257457  0.47239561  0.07677265    -0.80470
O115        O  0.07419218  0.04158031  0.98407073    -0.80590
O116        O  0.07513593  0.46324580  0.01767730    -0.80510
O117        O  0.02032914  0.05909489  0.07600039    -0.80500
O118        O  0.01867130  0.43978745  0.92136142    -0.80530
C119        C  0.03779560  0.40439588  0.93508979     1.09190
C120        C  0.04034723  0.09499400  0.06376417     1.09080
C121        C  0.07933643  0.03812608  0.94548479     1.09210
C122        C  0.07740506  0.46501120  0.05678124     1.09090
O123        O  0.50445910  0.40841814  0.04246651    -0.80500
O124        O  0.50749332  0.09453722  0.95535711    -0.80570
O125        O  0.42989125  0.47338827  0.93677088    -0.80510
O126        O  0.42791717  0.02652470  0.05464981    -0.80490
O127        O  0.45688941  0.08486184  0.02741552    -0.80540
O128        O  0.45734270  0.41904486  0.97180279    -0.80510
O129        O  0.44991121  0.44747030  0.05988006    -0.80470
O130        O  0.45468143  0.05412711  0.93224753    -0.80540
Co131      Co  0.01724529  0.44533278  0.99252529     1.51530
Co132      Co  0.01599763  0.05875986  0.00616478     1.51690
Co133      Co  0.98779072  0.49958453  0.93358148     1.51570
Co134      Co  0.98512935  0.00108228  0.06178926     1.51470
O135        O  0.99089088  0.00140480  0.99814513    -1.42430
C136        C  0.46738285  0.41132369  0.05892766     1.09120
C137        C  0.47258855  0.09063926  0.93509799     1.09210
C138        C  0.42599472  0.43530490  0.94992194     1.09150
C139        C  0.42610948  0.06606267  0.04849427     1.09120
C140        C  0.15899857  0.44418159  0.14661998    -0.20670
C141        C  0.18637779  0.41297830  0.13065608    -0.07230
C142        C  0.18275878  0.40492568  0.08815051     0.13640
C143        C  0.14970786  0.42551243  0.06361927    -0.20720
C144        C  0.11884120  0.45316708  0.08076504    -0.07240
C145        C  0.12530327  0.46407296  0.12272463     0.13630
C146        C  0.09577639  0.49509551  0.14376802    -0.24070
H147        H  0.16120060  0.44998697  0.17930893     0.14910
H148        H  0.14586290  0.41718457  0.03166423     0.14940
C149        C  0.21224516  0.37258416  0.06925424    -0.24020
H150        H  0.10870368  0.50303177  0.17472955     0.05150
H151        H  0.06231230  0.48065599  0.14839222     0.08380
H152        H  0.09355318  0.52573206  0.12520299     0.08380
H153        H  0.20685736  0.34027201  0.08442720     0.08360
H154        H  0.24736679  0.38260739  0.07332474     0.08360
H155        H  0.20556813  0.36995288  0.03574262     0.05140
C156        C  0.12877709  0.16708741  0.10268431    -0.20670
C157        C  0.10630639  0.19098516  0.13141576    -0.07230
C158        C  0.06141498  0.18150220  0.13963481     0.13640
C159        C  0.03969009  0.14878435  0.11812096    -0.20720
C160        C  0.06352263  0.12306970  0.09186457    -0.07240
C161        C  0.10887549  0.13148063  0.08516467     0.13630
C162        C  0.13699859  0.10160293  0.06119600    -0.24070
H163        H  0.16385209  0.17309078  0.09790919     0.14910
H164        H  0.00458813  0.14288479  0.12224237     0.14940
C165        C  0.03760319  0.20403866  0.17267690    -0.24020
H166        H  0.17223571  0.11219559  0.06044263     0.05150
H167        H  0.12515966  0.10034095  0.02908354     0.08380
H168        H  0.13538284  0.06861728  0.07562169     0.08380
H169        H  0.03990333  0.23921127  0.16596002     0.08360
H170        H  0.05333543  0.19662690  0.20307623     0.08360
H171        H  0.00228964  0.19384579  0.17444262     0.05140
C172        C  0.36192214  0.09305300  0.14386556    -0.20670
C173        C  0.32743288  0.11874574  0.12879373    -0.07230
C174        C  0.32519162  0.12821649  0.08568491     0.13640
C175        C  0.35779386  0.11203793  0.05906501    -0.20720
C176        C  0.39367009  0.08808853  0.07501459    -0.07240
C177        C  0.39535765  0.07889521  0.11833949     0.13630
C178        C  0.43380050  0.05580232  0.13890311    -0.24070
H179        H  0.36470281  0.08692186  0.17691908     0.14910
H180        H  0.35534588  0.11828956  0.02606909     0.14940
C181        C  0.28891970  0.15605024  0.06808845    -0.24020
H182        H  0.43085403  0.05408447  0.17301471     0.05150
H183        H  0.46497207  0.07352637  0.13154774     0.08380
H184        H  0.43570845  0.02214485  0.12896989     0.08380
H185        H  0.29090577  0.18840965  0.08145097     0.08360
H186        H  0.25630710  0.14090180  0.07560257     0.08360
H187        H  0.29137712  0.16023041  0.03403526     0.05140
C188        C  0.37772974  0.33422033  0.09562863    -0.20670
C189        C  0.40031987  0.31263158  0.12763584    -0.07230
C190        C  0.44635523  0.31795799  0.13196223     0.13640
C191        C  0.46869330  0.34681016  0.10493437    -0.20720
C192        C  0.44474645  0.37358870  0.07744988    -0.07240
C193        C  0.39864234  0.36703784  0.07245963     0.13630
C194        C  0.37038364  0.39613982  0.04543132    -0.24070
H195        H  0.34210734  0.33016263  0.09326162     0.14910
H196        H  0.50391334  0.35239490  0.10889305     0.14940
C197        C  0.47063133  0.29775887  0.16812098    -0.24020
H198        H  0.33544887  0.38464327  0.04414196     0.05150
H199        H  0.38319798  0.39704019  0.01390180     0.08380
H200        H  0.37031511  0.42918388  0.05725504     0.08380
H201        H  0.46582693  0.26231026  0.16804970     0.08360
H202        H  0.45740213  0.30973642  0.19728700     0.08360
H203        H  0.50649916  0.30583325  0.16716942     0.05140
C204        C  0.08676565  0.30201639  0.89418989    -0.20670
C205        C  0.08819819  0.31313155  0.85234228    -0.07230
C206        C  0.06566655  0.34989210  0.83679403     0.13640
C207        C  0.04760316  0.37823706  0.86441304    -0.20720
C208        C  0.05128638  0.37029531  0.90710029    -0.07240
C209        C  0.06839149  0.32984219  0.92205573     0.13630
C210        C  0.06930742  0.31556581  0.96709868    -0.24070
H211        H  0.10378544  0.27338396  0.90551965     0.14910
H212        H  0.03246732  0.40762201  0.85254218     0.14940
C213        C  0.06170544  0.35978889  0.79106356    -0.24020
H214        H  0.08145929  0.28213097  0.97179265     0.05150
H215        H  0.03539486  0.31603477  0.97992777     0.08380
H216        H  0.09199678  0.33670696  0.98459182     0.08380
H217        H  0.04582835  0.33194250  0.77599052     0.08360
H218        H  0.09461849  0.36629639  0.77721502     0.08360
H219        H  0.04116990  0.38858790  0.78431893     0.05140
C220        C  0.16999076  0.05398268  0.86492715    -0.20670
C221        C  0.18456254  0.09598641  0.87311781    -0.07230
C222        C  0.17098500  0.11445241  0.90998338     0.13640
C223        C  0.13974098  0.09263728  0.93536898    -0.20720
C224        C  0.12142181  0.05260135  0.92503524    -0.07240
C225        C  0.13849502  0.03207167  0.89034705     0.13630
C226        C  0.12257001  0.98770850  0.87915824    -0.24070
H227        H  0.18009108  0.03986525  0.83653641     0.14910
H228        H  0.12629505  0.10914164  0.96101313     0.14940
C229        C  0.18758073  0.15853371  0.92137357    -0.24020
H230        H  0.14135755  0.97552329  0.85287065     0.05150
H231        H  0.08720526  0.98823500  0.86998865     0.08380
H232        H  0.12700940  0.96475278  0.90590720     0.08380
H233        H  0.17716318  0.18326856  0.89784698     0.08360
H234        H  0.22423165  0.15857558  0.92347349     0.08360
H235        H  0.17454964  0.16783214  0.95161764     0.05140
C236        C  0.44518392  0.18246802  0.86108481    -0.20670
C237        C  0.40027176  0.18657920  0.87014012    -0.07230
C238        C  0.38237086  0.16603001  0.90591335     0.13640
C239        C  0.40822172  0.13673921  0.92860495    -0.20720
C240        C  0.45135814  0.12841100  0.91641420    -0.07240
C241        C  0.47121979  0.15319003  0.88404395     0.13630
C242        C  0.51840718  0.14616034  0.87166666    -0.24070
H243        H  0.45857874  0.19857026  0.83357367     0.14910
H244        H  0.39398831  0.11846255  0.95454534     0.14940
C245        C  0.33551101  0.17364317  0.91914488    -0.24020
H246        H  0.52823388  0.16763050  0.84500142     0.05150
H247        H  0.52256800  0.11223186  0.86293144     0.08380
H248        H  0.04095167  0.15309710  0.89785294     0.08380
H249        H  0.31155188  0.16264999  0.89562833     0.08360
H250        H  0.33102731  0.20857992  0.92360575     0.08360
H251        H  0.32763124  0.15597040  0.94867569     0.05140
C252        C  0.35623660  0.34661545  0.90245836    -0.20670
C253        C  0.32562209  0.37175894  0.87946666    -0.07230
C254        C  0.32123019  0.41537995  0.88871694     0.13640
C255        C  0.35120088  0.43388221  0.91669965    -0.20720
C256        C  0.38670703  0.41027761  0.93453649    -0.07240
C257        C  0.38732141  0.36525772  0.92924082     0.13630
C258        C  0.42261057  0.33708170  0.94854997    -0.24070
H259        H  0.35876240  0.31267397  0.89627231     0.14910
H260        H  0.34925146  0.46812198  0.92164823     0.14940
C261        C  0.28767130  0.44330803  0.86658828    -0.24020
H262        H  0.41738834  0.30264579  0.94143781     0.05150
H263        H  0.42230302  0.33930142  0.98257167     0.08740
H264        H  0.45556509  0.34718038  0.93653199     0.08380
H265        H  0.25394232  0.42991460  0.87241352     0.08360
H266        H  0.29409602  0.44442880  0.83293209     0.08360
H267        H  0.28889005  0.47689712  0.87721577     0.05140
C268        C  0.26431120  0.44195496  0.44656049    -0.20670
C269        C  0.22625042  0.46324465  0.45759441    -0.07230
C270        C  0.18503524  0.44889879  0.44134973     0.13640
C271        C  0.18380746  0.41745566  0.41095485    -0.20720
C272        C  0.22281794  0.40023396  0.39595572    -0.07240
C273        C  0.26339604  0.41130967  0.41596269     0.13630
C274        C  0.30684176  0.39275609  0.40459576    -0.24070
H275        H  0.29549628  0.45076740  0.46072194     0.14910
H276        H  0.15246278  0.40821560  0.39726783     0.14940
C277        C  0.14223491  0.96672115  0.45547932    -0.24020
H278        H  0.33355878  0.40058751  0.42688786     0.05150
H279        H  0.31678270  0.40742922  0.37436476     0.08380
H280        H  0.30392239  0.35708757  0.40410741     0.08380
H281        H  0.13989105  0.00086529  0.44508897     0.08360
H282        H  0.14004634  0.46364213  0.48944429     0.08360
H283        H  0.11330313  0.94932403  0.44242678     0.05140
C284        C  0.29075835  0.04537159  0.44570764    -0.20670
C285        C  0.24615299  0.04264133  0.45832503    -0.07230
C286        C  0.21768245  0.07643746  0.44614671     0.13640
C287        C  0.23270343  0.10824867  0.41746166    -0.20720
C288        C  0.27560576  0.10777507  0.40078372    -0.07240
C289        C  0.30577085  0.07740250  0.41694544     0.13630
C290        C  0.35285728  0.07719332  0.40240592    -0.24070
H291        H  0.31376169  0.02146814  0.45733278     0.14910
H292        H  0.20984553  0.13276197  0.40663114     0.14940
C293        C  0.17160570  0.08029265  0.46265286    -0.24020
H294        H  0.37185536  0.05076788  0.41785539     0.05150
H295        H  0.36941376  0.10823362  0.40949085     0.08380
H296        H  0.35365784  0.07271853  0.36866746     0.08380
H297        H  0.16336550  0.05491937  0.48638577     0.08360
H298        H  0.14726473  0.07853849  0.43700643     0.08360
H299        H  0.16844126  0.11188513  0.47719000     0.05140
C300        C  0.23651966  0.42211713  0.54565791    -0.20670
C301        C  0.25647434  0.46326583  0.54696960    -0.07230
C302        C  0.29517244  0.46830857  0.57166222     0.13640
C303        C  0.30913854  0.43411569  0.59803856    -0.20720
C304        C  0.28605834  0.39480021  0.59983193    -0.07240
C305        C  0.25156014  0.38767320  0.57115388     0.13630
C306        C  0.23038595  0.34365374  0.56777840    -0.24070
H307        H  0.20758496  0.41734147  0.52648020     0.14910
H308        H  0.33583030  0.43936649  0.61984618     0.14940
C309        C  0.32143660  0.50997047  0.57162889    -0.24020
H310        H  0.20416553  0.34345420  0.54364039     0.05150
H311        H  0.21528276  0.33277377  0.59733504     0.08380
H312        H  0.25593047  0.32022615  0.55961421     0.08380
H313        H  0.30314564  0.53456229  0.58809616     0.08360
H314        H  0.32843451  0.52145991  0.53949239     0.08360
H315        H  0.35365972  0.50589921  0.58783033     0.05140
C316        C  0.24421280  0.07894228  0.54519515    -0.20670
C317        C  0.22288622  0.03841196  0.54999655    -0.07230
C318        C  0.18994703  0.03287702  0.58087231     0.13640
C319        C  0.18164268  0.06645488  0.60751719    -0.20720
C320        C  0.20560459  0.10529485  0.60452282    -0.07240
C321        C  0.23575465  0.11235803  0.57185810     0.13630
C322        C  0.25977151  0.15504060  0.56561787    -0.24070
H323        H  0.26990340  0.08382931  0.52247426     0.14910
H324        H  0.15882949  0.06108673  0.63286978     0.14940
C325        C  0.16413851  0.99121856  0.58700727    -0.24020
H326        H  0.28129658  0.15559540  0.53802185     0.05150
H327        H  0.28092723  0.16167683  0.59267805     0.08380
H328        H  0.23534047  0.18117600  0.56131696     0.08380
H329        H  0.18609733  0.46528974  0.59821141     0.08360
H330        H  0.14809200  0.98242331  0.55767549     0.08360
H331        H  0.13773411  0.99385495  0.61032191     0.05140
C332        C  0.39810146  0.24445471  0.42047205    -0.20670
C333        C  0.40107306  0.28467377  0.39893414    -0.07230
C334        C  0.43436890  0.31432004  0.40984707     0.13640
C335        C  0.46610129  0.30142248  0.43944885    -0.20720
C336        C  0.46609954  0.25926547  0.45729571    -0.07240
C337        C  0.43088334  0.23067508  0.44830548     0.13630
C338        C  0.42787364  0.18471649  0.46496205    -0.24070
H339        H  0.37199873  0.22176880  0.41264646     0.14910
H340        H  0.49256940  0.32367625  0.44679755     0.14940
C341        C  0.43848172  0.35812309  0.38853224    -0.24020
H342        H  0.42674545  0.16253804  0.43894275     0.05150
H343        H  0.39721974  0.18005137  0.48331443     0.08380
H344        H  0.45626766  0.17537269  0.48469598     0.08380
H345        H  0.40829417  0.37682144  0.39399681     0.08360
H346        H  0.44289903  0.35468855  0.35490745     0.08360
H347        H  0.46728151  0.37674796  0.40025222     0.05140
C348        C  0.04450609  0.19652378  0.43571216    -0.20670
C349        C  0.04514119  0.23635279  0.45513685    -0.07230
C350        C  0.07988363  0.26620815  0.44651715     0.13640
C351        C  0.11185056  0.25592330  0.41772874    -0.20720
C352        C  0.10914955  0.21758698  0.39599150    -0.07240
C353        C  0.07603496  0.18677275  0.40617076     0.13630
C354        C  0.07195830  0.14507793  0.38416569    -0.24070
H355        H  0.01819580  0.17343093  0.44258478     0.14910
H356        H  0.13745933  0.27966944  0.40993809     0.14940
C357        C  0.08346180  0.30987710  0.46509776    -0.24020
H358        H  0.04336824  0.12515681  0.39542840     0.05150
H359        H  0.10229531  0.12601575  0.38947704     0.08380
H360        H  0.06725955  0.15180600  0.35059257     0.08380
H361        H  0.11480426  0.31224895  0.48295508     0.08360
H362        H  0.05584694  0.31642635  0.48586049     0.08360
H363        H  0.08359138  0.33540703  0.44015130     0.05140
C364        C  0.43121032  0.25767771  0.54666231    -0.20670
C365        C  0.46636163  0.22878855  0.54688935    -0.07230
C366        C  0.46320012  0.19018559  0.57173061     0.13640
C367        C  0.42654161  0.18285099  0.59745345    -0.20720
C368        C  0.39324727  0.21328752  0.59924374    -0.07240
C369        C  0.39424066  0.24983220  0.57169516     0.13630
C370        C  0.35696037  0.28145622  0.56824309    -0.24070
H371        H  0.43299969  0.28716789  0.52773216     0.14910
H372        H  0.42570228  0.15499315  0.61866271     0.14940
C373        C  0.49895924  0.15705327  0.57241120    -0.24020
H374        H  0.34467336  0.28338163  0.53591139     0.05150
H375        H  0.36911271  0.31392127  0.57657509     0.08380
H376        H  0.32847638  0.27191067  0.58806816     0.08380
H377        H  0.52981848  0.17107847  0.58508741     0.08360
H378        H  0.50439840  0.14594647  0.54082195     0.08360
H379        H  0.49010913  0.12828053  0.59224456     0.05140
C380        C  0.03902519  0.29475063  0.56715870    -0.20670
C381        C  0.04547621  0.25613039  0.54665248    -0.07230
C382        C  0.08665885  0.23531782  0.55088501     0.13640
C383        C  0.11860530  0.25219774  0.57748579    -0.20720
C384        C  0.10973638  0.28764373  0.60158850    -0.07240
C385        C  0.07056885  0.31054939  0.59485013     0.13630
C386        C  0.06070372  0.34964013  0.61903028    -0.24070
H387        H  0.00816773  0.31162703  0.56284590     0.14910
H388        H  0.14886387  0.23450947  0.58303475     0.14940
C389        C  0.09725870  0.19371296  0.53096593    -0.24020
H390        H  0.02834712  0.36369606  0.61003595     0.05150
H391        H  0.08683434  0.37465726  0.61331521     0.08380
H392        H  0.05971314  0.34077953  0.65248421     0.08380
H393        H  0.12496540  0.19922843  0.50905155     0.08360
H394        H  0.06875936  0.17988994  0.51438468     0.08360
H395        H  0.10738838  0.16925845  0.55495052     0.05140
C396        C  0.50722972  0.73955588  0.52249373     0.00200
C397        C  0.00628210  0.74583951  0.48075986     0.00200
C398        C  0.23619562  0.00126255  0.52440355     0.00200
C399        C  0.23096742  0.50306151  0.48240567     0.00200
C400        C  0.13241692  0.78833429  0.64155756     0.42100
N401        N  0.16026544  0.76102867  0.69671777     0.00990
C402        C  0.33661758  0.82947955  0.81407783    -0.06890
H403        H  0.35580896  0.83512438  0.64599053     0.06480
C404        C  0.34119548  0.67822115  0.65855944    -0.07240
Co405      Co  0.22240888  0.81955028  0.74138401     0.74180
N406        N  0.30516439  0.82432889  0.69238008    -0.26420
Co407      Co  0.32671652  0.77815039  0.73719937     0.74070
C408        C  0.36584369  0.71309665  0.63639919     0.42200
N409        N  0.23637006  0.65777912  0.69564790     0.00600
N410        N  0.34082149  0.73660630  0.69228087     0.00710
N411        N  0.26841888  0.85693039  0.82138706    -0.47270
H412        H  0.16601591  0.85451499  0.65171888     0.06470
N413        N  0.26504462  0.83965641  0.69544674     0.00990
N414        N  0.34550877  0.73154636  0.78213211     0.00730
C415        C  0.37068330  0.69984355  0.83661828     0.42340
N416        N  0.19592399  0.67300038  0.69503712    -0.25870
C417        C  0.16007084  0.82240230  0.81277353    -0.06790
N418        N  0.13465079  0.75229461  0.66524430    -0.46980
N419        N  0.37342870  0.73672732  0.81332590    -0.47200
C420        C  0.12430636  0.79576431  0.82894343     0.42110
N421        N  0.27107246  0.83475459  0.78699241     0.00980
N422        N  0.19615485  0.67147669  0.78575660    -0.25900
N423        N  0.17580640  0.80106526  0.69587777    -0.26390
N424        N  0.23550623  0.65367976  0.78647692     0.00620
H425        H  0.13814086  0.66354708  0.82340345     0.06510
H426        H  0.33142454  0.63759523  0.82499089     0.06550
N427        N  0.31069606  0.81850899  0.78286775    -0.26440
N428        N  0.32579797  0.69642166  0.69265946    -0.26050
N429        N  0.15936232  0.75981756  0.78539328     0.00990
C430        C  0.28821575  0.86829431  0.63854270     0.42380
C431        C  0.17486145  0.65759679  0.66162477    -0.07300
N432        N  0.32659090  0.69290327  0.78330432    -0.26050
H433        H  0.33442959  0.64561885  0.64949170     0.06530
N434        N  0.25378070  0.86572576  0.66425585    -0.47270
H435        H  0.14131653  0.66451331  0.65211140     0.06520
C436        C  0.20026599  0.62460516  0.83824682     0.42220
C437        C  0.15900896  0.82154977  0.66186672    -0.06800
Co438      Co  0.17701029  0.71589815  0.74086618     0.73820
N439        N  0.24489336  0.63340882  0.66440667    -0.46990
C440        C  0.30896054  0.85407702  0.84005711     0.42480
N441        N  0.12513556  0.75723539  0.81083667    -0.46980
Co442      Co  0.28179371  0.67389425  0.73976948     0.73890
C443        C  0.34080562  0.67046334  0.81636308    -0.07310
C444        C  0.32327344  0.84166186  0.65742310    -0.06870
N445        N  0.17907386  0.79807370  0.78554611    -0.26400
N446        N  0.36479476  0.74756570  0.65979293    -0.47160
H447        H  0.37066443  0.82030068  0.81859588     0.06490
C448        C  0.17193284  0.65533887  0.81696306    -0.07280
Cl449      Cl  0.25191707  0.74683602  0.73996492    -0.50280
C450        C  0.20818581  0.63210560  0.64109970     0.42250
H451        H  0.16703358  0.85628321  0.81678959     0.06460
N452        N  0.23922875  0.62432614  0.81748072    -0.46990
C453        C  0.13402734  0.71703014  0.35714989     0.42100
N454        N  0.16331980  0.74373132  0.30221939     0.00990
C455        C  0.33487444  0.67216867  0.18566043    -0.06890
H456        H  0.35175962  0.66647434  0.35733801     0.06480
C457        C  0.35288974  0.82365579  0.33751493    -0.07240
Co458      Co  0.22198992  0.68352580  0.25795335     0.74180
N459        N  0.30374249  0.67721428  0.30801992    -0.26420
Co460      Co  0.32733614  0.72316056  0.26238640     0.74070
C461        C  0.37627797  0.78826448  0.35959938     0.42200
N462        N  0.24500856  0.84647684  0.30254175     0.00600
N463        N  0.34420576  0.76450850  0.30628359     0.00710
N464        N  0.26675934  0.64254352  0.17901478    -0.47270
H465        H  0.16428466  0.65030614  0.34714267     0.06470
N466        N  0.26313334  0.66227812  0.30356772     0.00990
N467        N  0.34772377  0.76918668  0.21725198     0.00730
C468        C  0.37335414  0.80019336  0.16289491     0.42340
N469        N  0.20387025  0.83182733  0.30428644    -0.25870
C470        C  0.16628885  0.68251504  0.18364387    -0.06790
N471        N  0.13819126  0.75294281  0.33336137    -0.46980
N472        N  0.37476072  0.76329049  0.18609862    -0.47200
C473        C  0.13521814  0.70964418  0.16236525     0.42110
N474        N  0.26951010  0.66659379  0.21242549     0.00980
N475        N  0.20142088  0.83229060  0.21272554    -0.25900
N476        N  0.17675785  0.70342189  0.30319832    -0.26390
N477        N  0.24139216  0.84986702  0.21153142     0.00620
H478        H  0.14206901  0.84128115  0.17677049     0.06510
H479        H  0.33650377  0.86271729  0.17328141     0.06550
N480        N  0.30944619  0.68327433  0.21654202    -0.26440
N481        N  0.33262774  0.80532332  0.30520942    -0.26050
N482        N  0.16234680  0.74403996  0.21264529     0.00990
C483        C  0.28277153  0.63270190  0.36127181     0.42380
C484        C  0.18573792  0.84802158  0.33851127    -0.07300
N485        N  0.33042481  0.80800025  0.21548844    -0.26050
H486        H  0.35179515  0.85713440  0.34410430     0.06530
N487        N  0.24968893  0.63624051  0.33395746    -0.47270
H488        H  0.15244866  0.84159831  0.34923798     0.06520
C489        C  0.20488778  0.88001993  0.16055965     0.42220
C490        C  0.15903904  0.68339530  0.33710157    -0.06800
Co491      Co  0.18149385  0.78842120  0.25793686     0.73820
N492        N  0.25641847  0.87111851  0.33315254    -0.46990
C493        C  0.30700696  0.64626647  0.15995329     0.42480
N494        N  0.13289084  0.74749841  0.18198179    -0.46980
Co495      Co  0.28811785  0.82869531  0.25839384     0.73890
C496        C  0.34483611  0.82993571  0.18235303    -0.07310
C497        C  0.31965377  0.65971595  0.34406223    -0.06870
N498        N  0.18098499  0.70591096  0.21383328    -0.26400
N499        N  0.36973503  0.75331320  0.33757121    -0.47160
H500        H  0.36938129  0.68079132  0.18175402     0.06490
C501        C  0.17659924  0.84886847  0.18214314    -0.07280
Cl502      Cl  0.25468200  0.75605314  0.25916900    -0.50280
C503        C  0.22154045  0.87373098  0.35806320     0.42250
H504        H  0.17462622  0.64933063  0.17884667     0.06460
N505        N  0.24460385  0.88008990  0.18104322    -0.46990
O506        O  0.04417089  0.89795824  0.97309699    -0.80500
O507        O  0.04261912  0.60665855  0.02623353    -0.80520
O508        O  0.04692565  0.52778369  0.92255853    -0.80530
O509        O  0.04253693  0.97242450  0.07681916    -0.80470
O510        O  0.07425185  0.54154454  0.98400020    -0.80590
O511        O  0.07508783  0.96329230  0.01771605    -0.80510
O512        O  0.02037326  0.55906834  0.07594300    -0.80500
O513        O  0.01862884  0.93984541  0.92141368    -0.80530
C514        C  0.03776040  0.90445643  0.93513700     1.09190
C515        C  0.04039865  0.59496392  0.06370676     1.09080
C516        C  0.07939467  0.53809179  0.94541252     1.09210
C517        C  0.07736392  0.96504697  0.05681979     1.09090
O518        O  0.50438229  0.90846325  0.04240488    -0.80500
O519        O  0.50751386  0.59447411  0.95539002    -0.80570
O520        O  0.42983973  0.97346444  0.93670305    -0.80510
O521        O  0.42796066  0.52646313  0.05469624    -0.80490
O522        O  0.45691372  0.58480015  0.02744363    -0.80540
O523        O  0.45727292  0.91911391  0.97173727    -0.80510
O524        O  0.44984318  0.94752244  0.05982460    -0.80470
O525        O  0.45470508  0.55404566  0.93230777    -0.80540
Co526      Co  0.01719872  0.94537673  0.99256759     1.51530
Co527      Co  0.01605696  0.55872465  0.00610513     1.51690
Co528      Co  0.98773542  0.99963149  0.93363819     1.51570
Co529      Co  0.98517121  0.50105531  0.06173339     1.51470
O530        O  0.99094547  0.50136893  0.99808998    -1.42430
C531        C  0.46730533  0.91137168  0.05886311     1.09120
C532        C  0.47259997  0.59056301  0.93514902     1.09210
C533        C  0.42593098  0.93538015  0.94985100     1.09150
C534        C  0.42613858  0.56599816  0.04852548     1.09120
C535        C  0.15897814  0.94418391  0.14663301    -0.20670
C536        C  0.18635052  0.91298561  0.13065096    -0.07230
C537        C  0.18272094  0.90494932  0.08814306     0.13640
C538        C  0.14966516  0.92554615  0.06362687    -0.20720
C539        C  0.11880479  0.95319489  0.08079034    -0.07240
C540        C  0.12527832  0.96408574  0.12275208     0.13630
C541        C  0.09575990  0.99510346  0.14381153    -0.24070
H542        H  0.16118964  0.94997713  0.17932389     0.14910
H543        H  0.14581129  0.91723037  0.03166934     0.14940
C544        C  0.21220073  0.87261430  0.06922834    -0.24020
H545        H  0.10869497  0.00302706  0.17477367     0.05150
H546        H  0.06229513  0.98066610  0.14843726     0.08380
H547        H  0.09353653  0.02574653  0.12525649     0.08380
H548        H  0.20681499  0.84029693  0.08439116     0.08360
H549        H  0.24732382  0.88263438  0.07329475     0.08360
H550        H  0.20551516  0.86999627  0.03571671     0.05140
C551        C  0.12880152  0.66707792  0.10264675    -0.20670
C552        C  0.10631786  0.69097088  0.13137352    -0.07230
C553        C  0.06142507  0.68148124  0.13957896     0.13640
C554        C  0.03971271  0.64876100  0.11805800    -0.20720
C555        C  0.06355929  0.62304750  0.09181112    -0.07240
C556        C  0.10891329  0.63146491  0.08512574     0.13630
C557        C  0.13705229  0.60158502  0.06117581    -0.24070
H558        H  0.16387738  0.67308619  0.09788197     0.14910
H559        H  0.00460986  0.64285805  0.12216788     0.14940
C560        C  0.03759882  0.70401262  0.17261521    -0.24020
H561        H  0.17228657  0.61218721  0.06042632     0.05150
H562        H  0.12522172  0.60030528  0.02906254     0.08380
H563        H  0.13544256  0.56860472  0.07561368     0.08380
H564        H  0.03989478  0.73918557  0.16589958     0.08360
H565        H  0.05332299  0.69660265  0.20301854     0.08360
H566        H  0.00228659  0.69381354  0.17437151     0.05140
C567        C  0.36189664  0.59300334  0.14386046    -0.20670
C568        C  0.32742588  0.61870758  0.12876823    -0.07230
C569        C  0.32521328  0.62817707  0.08565812     0.13640
C570        C  0.35782495  0.61198584  0.05905670    -0.20720
C571        C  0.39368189  0.58802363  0.07502677    -0.07240
C572        C  0.39534252  0.57883320  0.11835300     0.13630
C573        C  0.43376947  0.55573410  0.13893803    -0.24070
H574        H  0.36465688  0.58687572  0.17691590     0.14910
H575        H  0.35540036  0.61823916  0.02605965     0.14940
C576        C  0.28896228  0.65602405  0.06804118    -0.24020
H577        H  0.43081070  0.55403317  0.17304877     0.05150
H578        H  0.46495163  0.57344143  0.13158411     0.08380
H579        H  0.43566602  0.52207037  0.12901985     0.08380
H580        H  0.29095313  0.68838399  0.08140225     0.08360
H581        H  0.25633967  0.64088867  0.07553965     0.08360
H582        H  0.29144064  0.66020086  0.03398915     0.05140
C583        C  0.37764076  0.83427142  0.09555351    -0.20670
C584        C  0.40024710  0.81263330  0.12752298    -0.07230
C585        C  0.44629091  0.81792073  0.13180740     0.13640
C586        C  0.46861703  0.84680435  0.10480083    -0.20720
C587        C  0.44466031  0.87363236  0.07736931    -0.07240
C588        C  0.39855102  0.86710418  0.07239984     0.13630
C589        C  0.37028765  0.89624575  0.04541375    -0.24070
H590        H  0.34201440  0.83023633  0.09321052     0.14910
H591        H  0.50384487  0.85236087  0.10873308     0.14940
C592        C  0.47060272  0.79762471  0.16789486    -0.24020
H593        H  0.33535141  0.88475429  0.04412158     0.05150
H594        H  0.38308944  0.89719709  0.01387630     0.08380
H595        H  0.37022799  0.92927040  0.05728354     0.08380
H596        H  0.46579403  0.76217934  0.16773505     0.08360
H597        H  0.45741401  0.80952532  0.19710868     0.08360
H598        H  0.50646995  0.80569793  0.16692194     0.05140
C599        C  0.08681519  0.80213928  0.89420225    -0.20670
C600        C  0.08818099  0.81325338  0.85235306    -0.07230
C601        C  0.06558585  0.84998178  0.83682330     0.13640
C602        C  0.04752009  0.87830520  0.86445802    -0.20720
C603        C  0.05126621  0.87037231  0.90714160    -0.07240
C604        C  0.06844358  0.82994536  0.92208521     0.13630
C605        C  0.06944411  0.81568012  0.96712990    -0.24070
H606        H  0.10388364  0.77352841  0.90551477     0.14910
H607        H  0.03232896  0.90766717  0.85259991     0.14940
C608        C  0.06155130  0.85986399  0.79109570    -0.24020
H609        H  0.08166247  0.78226847  0.97181629     0.05150
H610        H  0.03554677  0.81609132  0.97999933     0.08380
H611        H  0.09211838  0.83686510  0.98459177     0.08380
H612        H  0.04569183  0.83199394  0.77604616     0.08360
H613        H  0.09443747  0.86641309  0.77720700     0.08360
H614        H  0.04096763  0.88863376  0.78437044     0.05140
C615        C  0.17004141  0.55402076  0.86483557    -0.20670
C616        C  0.18464967  0.59600031  0.87308055    -0.07230
C617        C  0.17108982  0.61441763  0.90997697     0.13640
C618        C  0.13983045  0.59258856  0.93533761    -0.20720
C619        C  0.12147901  0.55258102  0.92495605    -0.07240
C620        C  0.13853367  0.53209326  0.89023407     0.13630
C621        C  0.12258139  0.48775665  0.87898878    -0.24070
H622        H  0.18012483  0.53993900  0.83642225     0.14910
H623        H  0.12640284  0.60906431  0.96100679     0.14940
C624        C  0.18772529  0.65846487  0.92143209    -0.24020
H625        H  0.14136173  0.47559733  0.85268483     0.05150
H626        H  0.08721774  0.48831602  0.86981796     0.08380
H627        H  0.12700653  0.46476226  0.90570996     0.08380
H628        H  0.17732662  0.68324628  0.89794337     0.08360
H629        H  0.22437573  0.65847330  0.92352849     0.08360
H630        H  0.17470709  0.66772398  0.95169364     0.05140
C631        C  0.44516585  0.68240379  0.86117527    -0.20670
C632        C  0.40022733  0.68642074  0.87016592    -0.07230
C633        C  0.38229887  0.66581734  0.90589868     0.13640
C634        C  0.40816753  0.63656131  0.92861017    -0.20720
C635        C  0.45134331  0.62832052  0.91647542    -0.07240
C636        C  0.47121842  0.65315852  0.88415250     0.13630
C637        C  0.51844280  0.64622280  0.87183686    -0.24070
H638        H  0.45858000  0.69855510  0.83369693     0.14910
H639        H  0.39392222  0.61823980  0.95451726     0.14940
C640        C  0.33540022  0.67334035  0.91906839    -0.24020
H641        H  0.52827380  0.66772845  0.84519832     0.05150
H642        H  0.52268516  0.61231024  0.86308593     0.08380
H643        H  0.04098132  0.65306413  0.89777439     0.08380
H644        H  0.31150105  0.66232047  0.89551253     0.08360
H645        H  0.33084229  0.70826450  0.92354184     0.08360
H646        H  0.32750318  0.65563648  0.94857905     0.05140
C647        C  0.35611131  0.84666204  0.90247451    -0.20670
C648        C  0.32552484  0.87179146  0.87943094    -0.07230
C649        C  0.32117857  0.91543856  0.88860481     0.13640
C650        C  0.35115864  0.93396475  0.91656791    -0.20720
C651        C  0.38663586  0.91035831  0.93446020    -0.07240
C652        C  0.38721199  0.86532589  0.92922978     0.13630
C653        C  0.42247762  0.83715008  0.94858036    -0.24070
H654        H  0.35860587  0.81270366  0.89634854     0.14910
H655        H  0.34923646  0.96821715  0.92146109     0.14940
C656        C  0.28765571  0.94336107  0.86641955    -0.24020
H657        H  0.41722981  0.80270516  0.94151491     0.05150
H658        H  0.42217004  0.83942003  0.98259679     0.08740
H659        H  0.45544079  0.84720679  0.93655260     0.08380
H660        H  0.25391189  0.93000951  0.87225401     0.08360
H661        H  0.29409354  0.94441500  0.83276639     0.08360
H662        H  0.28890400  0.97697083  0.87699146     0.05140
C663        C  0.26438629  0.94189518  0.44652723    -0.20670
C664        C  0.22632602  0.96316362  0.45759417    -0.07230
C665        C  0.18510283  0.94880635  0.44137540     0.13640
C666        C  0.18386428  0.91737747  0.41096818    -0.20720
C667        C  0.22287047  0.90017956  0.39593612    -0.07240
C668        C  0.26345942  0.91126190  0.41592070     0.13630
C669        C  0.30690382  0.89272897  0.40452200    -0.24070
H670        H  0.29557879  0.95071558  0.46067029     0.14910
H671        H  0.15251277  0.90812892  0.39729969     0.14940
C672        C  0.14216494  0.46684641  0.45540994    -0.24020
H673        H  0.33363353  0.90056286  0.42680027     0.05150
H674        H  0.31681870  0.90741588  0.37428900     0.08380
H675        H  0.30399607  0.85706025  0.40402687     0.08380
H676        H  0.13984892  0.50098629  0.44499594     0.08360
H677        H  0.14014607  0.96349070  0.48951362     0.08360
H678        H  0.11323514  0.44945528  0.44234677     0.05140
C679        C  0.29070855  0.54542603  0.44570866    -0.20670
C680        C  0.24609758  0.54272099  0.45831263    -0.07230
C681        C  0.21764888  0.57653007  0.44611987     0.13640
C682        C  0.23269815  0.60833127  0.41743811    -0.20720
C683        C  0.27560301  0.60782796  0.40076855    -0.07240
C684        C  0.30574613  0.57744193  0.41694277     0.13630
C685        C  0.35283424  0.57720265  0.40241066    -0.24070
H686        H  0.31369569  0.52151290  0.45734445     0.14910
H687        H  0.20985762  0.63285549  0.40659698     0.14940
C688        C  0.17156434  0.58040646  0.46260244    -0.24020
H689        H  0.37181521  0.55077194  0.41787136     0.05150
H690        H  0.36940637  0.60823795  0.40948705     0.08380
H691        H  0.35363713  0.57271554  0.36867418     0.08380
H692        H  0.16329561  0.55503415  0.48632739     0.08360
H693        H  0.14723828  0.57866499  0.43694328     0.08360
H694        H  0.16840621  0.61199959  0.47713976     0.05140
C695        C  0.23666335  0.92200057  0.54563058    -0.20670
C696        C  0.25661927  0.96314766  0.54695161    -0.07230
C697        C  0.29532408  0.96817880  0.57163840     0.13640
C698        C  0.30929457  0.93397587  0.59800229    -0.20720
C699        C  0.28620907  0.89466281  0.59979142    -0.07240
C700        C  0.25170561  0.88754812  0.57111426     0.13630
C701        C  0.23051677  0.84353426  0.56773530    -0.24070
H702        H  0.20772121  0.91723301  0.52646101     0.14910
H703        H  0.33598704  0.93922022  0.61981063     0.14940
C704        C  0.32158813  0.00984022  0.57161568    -0.24020
H705        H  0.20429956  0.84334453  0.54359400     0.05150
H706        H  0.21540354  0.83265485  0.59728896     0.08380
H707        H  0.25605389  0.82009928  0.55957128     0.08380
H708        H  0.30330112  0.03442452  0.58809678     0.08360
H709        H  0.32857812  0.02134312  0.53948154     0.08360
H710        H  0.35381503  0.00576228  0.58780889     0.05140
C711        C  0.24406484  0.57906246  0.54516962    -0.20670
C712        C  0.22273954  0.53853205  0.54997611    -0.07230
C713        C  0.18979596  0.53300621  0.58084997     0.13640
C714        C  0.18149383  0.56658846  0.60749330    -0.20720
C715        C  0.20545944  0.60542698  0.60449713    -0.07240
C716        C  0.23560463  0.61248427  0.57182604     0.13630
C717        C  0.25961743  0.65516806  0.56557245    -0.24070
H718        H  0.26975941  0.58394549  0.52245241     0.14910
H719        H  0.15868400  0.56122224  0.63284868     0.14940
C720        C  0.16398197  0.49135103  0.58698587    -0.24020
H721        H  0.28113174  0.65571963  0.53796920     0.05150
H722        H  0.28078449  0.66181269  0.59262342     0.08380
H723        H  0.23518306  0.68130089  0.56127451     0.08380
H724        H  0.18626000  0.96515654  0.59821927     0.08360
H725        H  0.14794584  0.48254911  0.55765058     0.08360
H726        H  0.13756937  0.49399603  0.61029110     0.05140
C727        C  0.39814578  0.74447661  0.42040926    -0.20670
C728        C  0.40112138  0.78468870  0.39885972    -0.07230
C729        C  0.43441457  0.81433887  0.40977132     0.13640
C730        C  0.46614071  0.80145109  0.43938376    -0.20720
C731        C  0.46613558  0.75929989  0.45724441    -0.07240
C732        C  0.43092061  0.73070669  0.44825523     0.13630
C733        C  0.42790557  0.68475313  0.46492406    -0.24070
H734        H  0.37204471  0.72178815  0.41258578     0.14910
H735        H  0.49260894  0.82370651  0.44672908     0.14940
C736        C  0.43853210  0.85813528  0.38844423    -0.24020
H737        H  0.42677816  0.66256612  0.43891139     0.05150
H738        H  0.39724965  0.68009600  0.48327482     0.08380
H739        H  0.45629708  0.67541348  0.48466189     0.08380
H740        H  0.40834438  0.87683682  0.39389860     0.08360
H741        H  0.44295462  0.85468945  0.35482157     0.08360
H742        H  0.46733044  0.87676325  0.40016277     0.05140
C743        C  0.04447878  0.69647193  0.43565333    -0.20670
C744        C  0.04511447  0.73629135  0.45509478    -0.07230
C745        C  0.07986257  0.76614607  0.44649130     0.13640
C746        C  0.11183447  0.75587025  0.41770361    -0.20720
C747        C  0.10913375  0.71754484  0.39595003    -0.07240
C748        C  0.07601084  0.68673195  0.40611004     0.13630
C749        C  0.07192651  0.64505303  0.38407982    -0.24070
H750        H  0.01816256  0.67338069  0.44251098     0.14910
H751        H  0.13744776  0.77961632  0.40992660     0.14940
C752        C  0.08344212  0.80980725  0.46508694    -0.24020
H753        H  0.04333136  0.62513099  0.39532933     0.05150
H754        H  0.10225850  0.62598148  0.38938070     0.08380
H755        H  0.06723187  0.65180396  0.35050964     0.08380
H756        H  0.11477882  0.81216743  0.48295457     0.08360
H757        H  0.05582105  0.81635435  0.48584254     0.08360
H758        H  0.08358443  0.83534574  0.44014839     0.05140
C759        C  0.43127536  0.75773772  0.54663837    -0.20670
C760        C  0.46641421  0.72883528  0.54684021    -0.07230
C761        C  0.46325035  0.69022193  0.57166488     0.13640
C762        C  0.42660114  0.68288739  0.59739636    -0.20720
C763        C  0.39332624  0.71333925  0.59922004    -0.07240
C764        C  0.39432149  0.74990051  0.57169344     0.13630
C765        C  0.35706066  0.78154871  0.56828908    -0.24070
H766        H  0.43306726  0.78723311  0.52771564     0.14910
H767        H  0.42575843  0.65501752  0.61859106     0.14940
C768        C  0.49899970  0.65707999  0.57232303    -0.24020
H769        H  0.34474274  0.78349965  0.53596809     0.05150
H770        H  0.36924359  0.81400131  0.57662824     0.08380
H771        H  0.32859155  0.77200959  0.58813535     0.08380
H772        H  0.52986321  0.67108986  0.58500509     0.08360
H773        H  0.50443320  0.64598993  0.54072703     0.08360
H774        H  0.49014426  0.62829840  0.59214234     0.05140
C775        C  0.03896940  0.79467047  0.56709533    -0.20670
C776        C  0.04542149  0.75603708  0.54661260    -0.07230
C777        C  0.08659142  0.73520751  0.55088103     0.13640
C778        C  0.11851648  0.75207487  0.57751101    -0.20720
C779        C  0.10964519  0.78754552  0.60157963    -0.07240
C780        C  0.07049774  0.81047094  0.59479732     0.13630
C781        C  0.06063484  0.84958734  0.61894232    -0.24070
H782        H  0.00812347  0.81155982  0.56275170     0.14910
H783        H  0.14876087  0.73437379  0.58309446     0.14940
C784        C  0.09719830  0.69360598  0.53095914    -0.24020
H785        H  0.02829304  0.86365496  0.60991568     0.05150
H786        H  0.08678323  0.87458684  0.61322838     0.08380
H787        H  0.05961354  0.84075244  0.65240065     0.08380
H788        H  0.12493061  0.69912004  0.50907270     0.08360
H789        H  0.06871241  0.67980132  0.51434340     0.08360
H790        H  0.10729437  0.66913927  0.55494532     0.05140
C791        C  0.00715672  0.23950776  0.52254427     0.00200
C792        C  0.50633771  0.24590395  0.48080658     0.00200
C793        C  0.73611117  0.50132963  0.52436195     0.00200
C794        C  0.73099618  0.00299872  0.48237176     0.00200
C795        C  0.63253212  0.28840083  0.64156400     0.42100
N796        N  0.66039078  0.26100880  0.69668215     0.00990
C797        C  0.83673285  0.32958114  0.81401093    -0.06890
H798        H  0.85569027  0.33515473  0.64587733     0.06480
C799        C  0.84114142  0.17817377  0.65863716    -0.07240
Co800      Co  0.72249516  0.31955661  0.74147949     0.74180
N801        N  0.80512182  0.32439599  0.69234291    -0.26420
Co802      Co  0.82665233  0.27823606  0.73712924     0.74070
C803        C  0.86571963  0.21304902  0.63640167     0.42200
N804        N  0.73636865  0.15765424  0.69569576     0.00600
N805        N  0.84067182  0.23662893  0.69224512     0.00710
N806        N  0.76850552  0.35692952  0.82145976    -0.47270
H807        H  0.66604114  0.35459145  0.65187333     0.06470
N808        N  0.76503898  0.33975951  0.69549859     0.00990
N809        N  0.84546597  0.23161414  0.78209646     0.00730
C810        C  0.87067585  0.19997205  0.83661167     0.42340
N811        N  0.69594787  0.17292446  0.69499584    -0.25870
C812        C  0.66017588  0.32225538  0.81288933    -0.06790
N813        N  0.63479565  0.25232050  0.66518435    -0.46980
N814        N  0.87342105  0.23682071  0.81326183    -0.47200
C815        C  0.62436364  0.29563039  0.82898300     0.42110
N816        N  0.77113558  0.33478782  0.78704574     0.00980
N817        N  0.69607200  0.17136312  0.78571253    -0.25900
N818        N  0.67588896  0.30106453  0.69593607    -0.26390
N819        N  0.73544557  0.15361673  0.78652248     0.00620
H820        H  0.63800097  0.16341325  0.82328332     0.06510
H821        H  0.83137995  0.13772129  0.82509982     0.06550
N822        N  0.81076520  0.31860481  0.78283308    -0.26440
N823        N  0.82572000  0.19641119  0.69271125    -0.26050
N824        N  0.65938875  0.25974265  0.78535378     0.00990
C825        C  0.78812316  0.36839714  0.63856154     0.42380
C826        C  0.67493010  0.15753943  0.66155565    -0.07300
N827        N  0.82652201  0.19297301  0.78334955    -0.26050
H828        H  0.83443401  0.14554045  0.64963059     0.06530
N829        N  0.75373467  0.36585138  0.66433502    -0.47270
H830        H  0.64141139  0.16449372  0.65198420     0.06520
C831        C  0.70014691  0.12453719  0.83824304     0.42220
C832        C  0.65907523  0.32159874  0.66195506    -0.06800
Co833      Co  0.67702903  0.21581141  0.74079004     0.73820
N834        N  0.74492984  0.13326663  0.66447460    -0.46990
C835        C  0.80908399  0.35411811  0.84005786     0.42480
N836        N  0.62514610  0.25715040  0.81078031    -0.46980
Co837      Co  0.78173294  0.17384243  0.73985694     0.73890
C838        C  0.84075670  0.17057942  0.81642743    -0.07310
C839        C  0.82318471  0.34172033  0.65736495    -0.06870
N840        N  0.67916107  0.29797414  0.78561106    -0.26400
N841        N  0.86461843  0.24755959  0.65973383    -0.47160
H842        H  0.87079134  0.32041935  0.81848038     0.06490
C843        C  0.67180803  0.15522008  0.81688923    -0.07280
Cl844      Cl  0.75189795  0.24676283  0.74006364    -0.50280
C845        C  0.70826358  0.13200110  0.64110391     0.42250
H846        H  0.66716872  0.35611961  0.81697221     0.06460
N847        N  0.73915369  0.12429280  0.81755034    -0.46990
C848        C  0.63402171  0.21705503  0.35715393     0.42100
N849        N  0.66330208  0.24374170  0.30221230     0.00990
C850        C  0.83486028  0.17219888  0.18565850    -0.06890
H851        H  0.85175727  0.16645413  0.35733304     0.06480
C852        C  0.85286096  0.32364735  0.33755002    -0.07240
Co853      Co  0.72198091  0.18353450  0.25795949     0.74180
N854        N  0.80373264  0.17721567  0.30802558    -0.26420
Co855      Co  0.82733032  0.22316700  0.26239913     0.74070
C856        C  0.87624626  0.28825238  0.35963209     0.42200
N857        N  0.74499215  0.34648005  0.30254793     0.00600
N858        N  0.84419295  0.26450822  0.30630263     0.00710
N859        N  0.76674661  0.14256835  0.17901688    -0.47270
H860        H  0.66428889  0.15033178  0.34716469     0.06470
N861        N  0.76312100  0.16228620  0.30357517     0.00990
N862        N  0.84773343  0.26919905  0.21727561     0.00730
C863        C  0.87341595  0.30023128  0.16295271     0.42340
N864        N  0.70385141  0.33183606  0.30428061    -0.25870
C865        C  0.66628182  0.18250611  0.18365176    -0.06790
N866        N  0.63817765  0.25296055  0.33335462    -0.46980
N867        N  0.87480133  0.26331747  0.18614210    -0.47200
C868        C  0.63520611  0.20962540  0.16236828     0.42110
N869        N  0.76950250  0.16660737  0.21243424     0.00980
N870        N  0.70142792  0.33228904  0.21271979    -0.25900
N871        N  0.67674589  0.20343400  0.30320118    -0.26390
N872        N  0.74139947  0.34986621  0.21153671     0.00620
H873        H  0.64209197  0.34126783  0.17673957     0.06510
H874        H  0.83655623  0.36275021  0.17333561     0.06550
N875        N  0.80943803  0.18329038  0.21654893    -0.26440
N876        N  0.83261104  0.30532198  0.30523434    -0.26050
N877        N  0.66233921  0.24403960  0.21263800     0.00990
C878        C  0.78276440  0.13269104  0.36126921     0.42380
C879        C  0.68570831  0.34803824  0.33849695    -0.07300
N880        N  0.83043483  0.30801249  0.21551339    -0.26050
H881        H  0.85175984  0.35712312  0.34414825     0.06530
N882        N  0.74967807  0.13624121  0.33395989    -0.47270
H883        H  0.65241375  0.34162225  0.34921267     0.06520
C884        C  0.70491681  0.38000449  0.16054561     0.42220
C885        C  0.65903488  0.18341618  0.33711259    -0.06800
Co886      Co  0.68148431  0.28842637  0.25792913     0.73820
N887        N  0.75639362  0.37112520  0.33315892    -0.46990
C888        C  0.80698939  0.14630194  0.15994959     0.42480
N889        N  0.63287848  0.24748592  0.18197655    -0.46980
Co890      Co  0.78811262  0.32869844  0.25840988     0.73890
C891        C  0.84487567  0.32996275  0.18239749    -0.07310
C892        C  0.81964734  0.15970526  0.34406131    -0.06870
N893        N  0.68097887  0.20591176  0.21383410    -0.26400
N894        N  0.86971357  0.25330688  0.33759423    -0.47160
H895        H  0.86936489  0.18082749  0.18174682     0.06490
C896        C  0.67661928  0.34885823  0.18212458    -0.07280
Cl897      Cl  0.75467471  0.25605908  0.25917584    -0.50280
C898        C  0.72150660  0.37374584  0.35805761     0.42250
H899        H  0.67461870  0.14931946  0.17886525     0.06460
N900        N  0.74462381  0.38008142  0.18104334    -0.46990
O901        O  0.54417112  0.39785779  0.97308556    -0.80500
O902        O  0.54254727  0.10664251  0.02626375    -0.80520
O903        O  0.54684316  0.02778862  0.92258443    -0.80530
O904        O  0.54255718  0.47234288  0.07680807    -0.80470
O905        O  0.57416291  0.04152439  0.98403510    -0.80590
O906        O  0.57509557  0.46319968  0.01769954    -0.80510
O907        O  0.52031149  0.05904326  0.07596724    -0.80500
O908        O  0.51863214  0.43974621  0.92140310    -0.80530
C909        C  0.53776036  0.40435476  0.93512492     1.09190
C910        C  0.54033805  0.09493963  0.06373468     1.09080
C911        C  0.57930961  0.03807876  0.94544850     1.09210
C912        C  0.57738020  0.46496903  0.05680178     1.09090
O913        O  0.00448236  0.40847013  0.04242798    -0.80500
O914        O  0.00750807  0.09457359  0.95538480    -0.80570
O915        O  0.92993460  0.47344227  0.93672015    -0.80510
O916        O  0.92794761  0.02654820  0.05467417    -0.80490
O917        O  0.95690525  0.08489161  0.02743786    -0.80540
O918        O  0.95738480  0.41910224  0.97175925    -0.80510
O919        O  0.94993175  0.44752899  0.05982068    -0.80470
O920        O  0.95469844  0.05414919  0.93229552    -0.80540
Co921      Co  0.51720280  0.44528014  0.99256315     1.51530
Co922      Co  0.51597357  0.05871511  0.00613201     1.51690
Co923      Co  0.48774384  0.49953398  0.93363920     1.51570
Co924      Co  0.48509484  0.00104031  0.06174667     1.51470
O925        O  0.49084939  0.00136729  0.99809864    -1.42430
C926        C  0.96740297  0.41138052  0.05888376     1.09120
C927        C  0.97260033  0.09066503  0.93513182     1.09210
C928        C  0.92603721  0.43536005  0.94987638     1.09150
C929        C  0.92612716  0.06608389  0.04851076     1.09120
C930        C  0.65902137  0.44417020  0.14660115    -0.20670
C931        C  0.68638936  0.41296364  0.13062787    -0.07230
C932        C  0.68275250  0.40490662  0.08812504     0.13640
C933        C  0.64968983  0.42548823  0.06360698    -0.20720
C934        C  0.61882985  0.45313995  0.08076557    -0.07240
C935        C  0.62531293  0.46405510  0.12271945     0.13630
C936        C  0.59579455  0.49507858  0.14377147    -0.24070
H937        H  0.66123956  0.44997909  0.17928864     0.14910
H938        H  0.64582895  0.41715606  0.03165455     0.14940
C939        C  0.71223076  0.37256410  0.06921951    -0.24020
H940        H  0.60873819  0.50302235  0.17472530     0.05150
H941        H  0.56233439  0.48063645  0.14841404     0.08380
H942        H  0.59355822  0.52571122  0.12520222     0.08380
H943        H  0.70685019  0.34025284  0.08439652     0.08360
H944        H  0.74735399  0.38258864  0.07327571     0.08360
H945        H  0.70553883  0.36992994  0.03571064     0.05140
C946        C  0.62877747  0.16701829  0.10267168    -0.20670
C947        C  0.60630161  0.19093559  0.13138551    -0.07230
C948        C  0.56140264  0.18147146  0.13958434     0.13640
C949        C  0.53967878  0.14874827  0.11807566    -0.20720
C950        C  0.56351410  0.12301447  0.09183823    -0.07240
C951        C  0.60887135  0.13141333  0.08515053     0.13630
C952        C  0.63699293  0.10152785  0.06118910    -0.24070
H953        H  0.66385588  0.17301021  0.09790743     0.14910
H954        H  0.50457226  0.14286483  0.12218132     0.14940
C955        C  0.53757533  0.20404438  0.17259168    -0.24020
H956        H  0.67223220  0.11211385  0.06044104     0.05150
H957        H  0.62515980  0.10026519  0.02907447     0.08380
H958        H  0.63536853  0.06854363  0.07561676     0.08380
H959        H  0.53987971  0.23921085  0.16583788     0.08360
H960        H  0.55329056  0.19666398  0.20300482     0.08360
H961        H  0.50226073  0.19385411  0.17434993     0.05140
C962        C  0.86188029  0.09304922  0.14384809    -0.20670
C963        C  0.82740528  0.11874995  0.12876029    -0.07230
C964        C  0.82518984  0.12822924  0.08565236     0.13640
C965        C  0.85780583  0.11205288  0.05904805    -0.20720
C966        C  0.89367040  0.08810033  0.07501495    -0.07240
C967        C  0.89533339  0.07889964  0.11833917     0.13630
C968        C  0.93377002  0.05581271  0.13892087    -0.24070
H969        H  0.86464047  0.08691362  0.17690252     0.14910
H970        H  0.85537902  0.11831047  0.02605177     0.14940
C971        C  0.78893096  0.15607017  0.06804131    -0.24020
H972        H  0.93080811  0.05409942  0.17303127     0.05150
H973        H  0.96494375  0.07353826  0.13157488     0.08380
H974        H  0.93568597  0.02215373  0.12899348     0.08380
H975        H  0.79091236  0.18842707  0.08140936     0.08360
H976        H  0.75631229  0.14092429  0.07553650     0.08360
H977        H  0.79140879  0.16025573  0.03398991     0.05140
C978        C  0.87774062  0.33428838  0.09560377    -0.20670
C979        C  0.90033378  0.31268339  0.12760047    -0.07230
C980        C  0.94637136  0.31800119  0.13191584     0.13640
C981        C  0.96870784  0.34686213  0.10489307    -0.20720
C982        C  0.94476144  0.37364919  0.07741517    -0.07240
C983        C  0.89865566  0.36710342  0.07243110     0.13630
C984        C  0.87039914  0.39620549  0.04540033    -0.24070
H985        H  0.84211725  0.33023720  0.09324197     0.14910
H986        H  0.00392992  0.35243883  0.10884515     0.14940
C987        C  0.97065669  0.29777041  0.16805236    -0.24020
H988        H  0.83546391  0.38471028  0.04411119     0.05150
H989        H  0.88321427  0.39710505  0.01387002     0.08380
H990        H  0.87033211  0.42925000  0.05722307     0.08380
H991        H  0.96585042  0.26232291  0.16795127     0.08360
H992        H  0.95743817  0.30972240  0.19723321     0.08360
H993        H  0.00652461  0.30584361  0.16709529     0.05140
C994        C  0.58678368  0.30201139  0.89420246    -0.20670
C995        C  0.58821646  0.31313962  0.85235757    -0.07230
C996        C  0.56567347  0.34989621  0.83681670     0.13640
C997        C  0.54759143  0.37822323  0.86444185    -0.20720
C998        C  0.55126943  0.37026864  0.90712775    -0.07240
C999        C  0.56839278  0.32982005  0.92207432     0.13630
C1000       C  0.56931107  0.31553163  0.96711417    -0.24070
H1001       H  0.60381285  0.27338191  0.90552584     0.14910
H1002       H  0.53244453  0.40760513  0.85257739     0.14940
C1003       C  0.56171653  0.35980671  0.79108821    -0.24020
H1004       H  0.58147987  0.28210208  0.97180072     0.05150
H1005       H  0.53539656  0.31598037  0.97994097     0.08380
H1006       H  0.59198777  0.33667863  0.98461447     0.08380
H1007       H  0.54585495  0.33195925  0.77600398     0.08360
H1008       H  0.59462971  0.36633323  0.77724681     0.08360
H1009       H  0.54116902  0.38859864  0.78434929     0.05140
C1010       C  0.66996747  0.05396794  0.86489763    -0.20670
C1011       C  0.68453426  0.09597031  0.87310021    -0.07230
C1012       C  0.67095208  0.11442390  0.90997045     0.13640
C1013       C  0.63970942  0.09259781  0.93534959    -0.20720
C1014       C  0.62139514  0.05256340  0.92500420    -0.07240
C1015       C  0.63847240  0.03204636  0.89031061     0.13630
C1016       C  0.62255284  0.98768537  0.87910938    -0.24070
H1017       H  0.68007180  0.03985974  0.83650369     0.14910
H1018       H  0.62626090  0.10909228  0.96099895     0.14940
C1019       C  0.68754273  0.15850275  0.92137374    -0.24020
H1020       H  0.64134271  0.97551018  0.85281862     0.05150
H1021       H  0.58718827  0.98821072  0.86993915     0.08380
H1022       H  0.62699383  0.96472250  0.90585256     0.08380
H1023       H  0.67712371  0.18324350  0.89785351     0.08360
H1024       H  0.72419366  0.15854768  0.92347500     0.08360
H1025       H  0.67450908  0.16779044  0.95162028     0.05140
C1026       C  0.94517494  0.18246536  0.86109395    -0.20670
C1027       C  0.90025821  0.18655994  0.87013895    -0.07230
C1028       C  0.88235702  0.16601221  0.90591261     0.13640
C1029       C  0.90821607  0.13673888  0.92861671    -0.20720
C1030       C  0.95136036  0.12842652  0.91643809    -0.07240
C1031       C  0.97121888  0.15320489  0.88406572     0.13630
C1032       C  0.01841283  0.14619174  0.87169957    -0.24070
H1033       H  0.95856998  0.19856765  0.83358293     0.14910
H1034       H  0.89398401  0.11846230  0.95455767     0.14940
C1035       C  0.83549085  0.17361069  0.91913424    -0.24020
H1036       H  0.02823611  0.16765858  0.84503086     0.05150
H1037       H  0.02259135  0.11226246  0.86297419     0.08380
H1038       H  0.54095519  0.15304856  0.89781784     0.08380
H1039       H  0.81154072  0.16260089  0.89561746     0.08360
H1040       H  0.83099125  0.20854709  0.92358490     0.08360
H1041       H  0.82761273  0.15594345  0.94866826     0.05140
C1042       C  0.85627620  0.34665256  0.90244072    -0.20670
C1043       C  0.82565946  0.37178691  0.87944254    -0.07230
C1044       C  0.82127075  0.41541320  0.88867567     0.13640
C1045       C  0.85124494  0.43392714  0.91664859    -0.20720
C1046       C  0.88675014  0.41032826  0.93449449    -0.07240
C1047       C  0.88736287  0.36530533  0.92921477     0.13630
C1048       C  0.92265125  0.33713490  0.94853324    -0.24070
H1049       H  0.85880012  0.31270772  0.89626817     0.14910
H1050       H  0.84929701  0.46816959  0.92158400     0.14940
C1051       C  0.78770999  0.44333320  0.86654000    -0.24020
H1052       H  0.91742723  0.30269580  0.94143409     0.05150
H1053       H  0.92234505  0.33936844  0.98255362     0.08740
H1054       H  0.95560566  0.34722716  0.93651071     0.08380
H1055       H  0.75398130  0.42994331  0.87237422     0.08360
H1056       H  0.79413031  0.44443914  0.83288322     0.08360
H1057       H  0.78893140  0.47692741  0.87715394     0.05140
C1058       C  0.76432618  0.44192201  0.44652410    -0.20670
C1059       C  0.72626875  0.46321415  0.45756022    -0.07230
C1060       C  0.68505000  0.44887098  0.44132099     0.13640
C1061       C  0.68381625  0.41742880  0.41092605    -0.20720
C1062       C  0.72282389  0.40020565  0.39592369    -0.07240
C1063       C  0.76340486  0.41127695  0.41592767     0.13630
C1064       C  0.80684825  0.39272288  0.40455639    -0.24070
H1065       H  0.79551366  0.45073349  0.46068191     0.14910
H1066       H  0.65246959  0.40819084  0.39724156     0.14940
C1067       C  0.64218513  0.96676981  0.45540209    -0.24020
H1068       H  0.83356623  0.40054641  0.42685021     0.05150
H1069       H  0.81678876  0.40740466  0.37432886     0.08380
H1070       H  0.80392595  0.35705502  0.40406014     0.08380
H1071       H  0.63985964  0.00091479  0.44500845     0.08360
H1072       H  0.64006630  0.46360579  0.48942137     0.08360
H1073       H  0.61325418  0.94938200  0.44233707     0.05140
C1074       C  0.79072395  0.04537894  0.44567111    -0.20670
C1075       C  0.74611585  0.04266454  0.45828267    -0.07230
C1076       C  0.71766108  0.07647401  0.44610616     0.13640
C1077       C  0.73270068  0.10828631  0.41743113    -0.20720
C1078       C  0.77560343  0.10779599  0.40075559    -0.07240
C1079       C  0.80575307  0.07740783  0.41691456     0.13630
C1080       C  0.85283952  0.07718087  0.40237677    -0.24070
H1081       H  0.81371608  0.02146481  0.45729520     0.14910
H1082       H  0.70985502  0.13281115  0.40660202     0.14940
C1083       C  0.67158018  0.08033959  0.46260007    -0.24020
H1084       H  0.87182585  0.05074662  0.41782532     0.05150
H1085       H  0.86940852  0.10821461  0.40946374     0.08380
H1086       H  0.85363906  0.07270818  0.36863794     0.08380
H1087       H  0.66332247  0.05496247  0.48632373     0.08360
H1088       H  0.64724776  0.07859829  0.43694594     0.08360
H1089       H  0.66842055  0.11192926  0.47714350     0.05140
C1090       C  0.73655950  0.42207623  0.54562418    -0.20670
C1091       C  0.75652466  0.46322102  0.54692590    -0.07230
C1092       C  0.79522550  0.46826016  0.57161557     0.13640
C1093       C  0.80917970  0.43407267  0.59800401    -0.20720
C1094       C  0.78608462  0.39476579  0.59981238    -0.07240
C1095       C  0.75158694  0.38763719  0.57113401     0.13630
C1096       C  0.73039907  0.34362215  0.56777327    -0.24070
H1097       H  0.70762348  0.41730228  0.52644776     0.14910
H1098       H  0.83587320  0.43932354  0.61980979     0.14940
C1099       C  0.82150353  0.50991425  0.57156883    -0.24020
H1100       H  0.70418002  0.34342099  0.54363402     0.05150
H1101       H  0.71529099  0.33275867  0.59733240     0.08380
H1102       H  0.75593632  0.32018291  0.55961942     0.08380
H1103       H  0.80322850  0.53451333  0.58804108     0.08360
H1104       H  0.82849202  0.52139832  0.53942896     0.08360
H1105       H  0.85373186  0.50583413  0.58775907     0.05140
C1106       C  0.74414666  0.07898052  0.54515592    -0.20670
C1107       C  0.72280584  0.03845609  0.54994843    -0.07230
C1108       C  0.68986332  0.03292679  0.58082198     0.13640
C1109       C  0.68157775  0.06649798  0.60747986    -0.20720
C1110       C  0.70556099  0.10532620  0.60450029    -0.07240
C1111       C  0.73570844  0.11238935  0.57183325     0.13630
C1112       C  0.75974389  0.15506356  0.56560591    -0.24070
H1113       H  0.76983715  0.08386504  0.52243459     0.14910
H1114       H  0.65876237  0.06113128  0.63283092     0.14940
C1115       C  0.66403078  0.99128030  0.58694070    -0.24020
H1116       H  0.78126435  0.15562030  0.53800670     0.05150
H1117       H  0.78090706  0.16167904  0.59266619     0.08380
H1118       H  0.73532459  0.18121122  0.56131836     0.08380
H1119       H  0.68613339  0.46522931  0.59816005     0.08360
H1120       H  0.64798576  0.98250224  0.55760283     0.08360
H1121       H  0.63762295  0.99392417  0.61025083     0.05140
C1122       C  0.89810220  0.24444818  0.42043489    -0.20670
C1123       C  0.90107860  0.28466727  0.39889737    -0.07230
C1124       C  0.93436571  0.31431695  0.40982394     0.13640
C1125       C  0.96608553  0.30142324  0.43943957    -0.20720
C1126       C  0.96608069  0.25926677  0.45728805    -0.07240
C1127       C  0.93087179  0.23067296  0.44828383     0.13630
C1128       C  0.92785847  0.18471504  0.46494162    -0.24070
H1129       H  0.87200556  0.22175978  0.41259972     0.14910
H1130       H  0.99254832  0.32367938  0.44679754     0.14940
C1131       C  0.93848407  0.35811974  0.38850948    -0.24020
H1132       H  0.92674414  0.16253500  0.43892329     0.05150
H1133       H  0.89719638  0.18004888  0.48328192     0.08380
H1134       H  0.95624431  0.17537420  0.48468723     0.08380
H1135       H  0.90829278  0.37681648  0.39396241     0.08360
H1136       H  0.94291583  0.35468462  0.35488652     0.08360
H1137       H  0.96727745  0.37674671  0.40023945     0.05140
C1138       C  0.54451901  0.19651933  0.43570600    -0.20670
C1139       C  0.54515955  0.23634809  0.45513143    -0.07230
C1140       C  0.57989869  0.26620439  0.44650060     0.13640
C1141       C  0.61185599  0.25592072  0.41770178    -0.20720
C1142       C  0.60914887  0.21758444  0.39596480    -0.07240
C1143       C  0.57603675  0.18677037  0.40615295     0.13630
C1144       C  0.57194854  0.14507916  0.38414340    -0.24070
H1145       H  0.51821054  0.17342635  0.44258494     0.14910
H1146       H  0.63746204  0.27966729  0.40990414     0.14940
C1147       C  0.58348273  0.30987357  0.46507995    -0.24020
H1148       H  0.54336250  0.12515725  0.39541405     0.05150
H1149       H  0.60228662  0.12601552  0.38943978     0.08380
H1150       H  0.56723602  0.15181265  0.35057272     0.08380
H1151       H  0.61483085  0.31224610  0.48292852     0.08360
H1152       H  0.55587459  0.31642281  0.48585015     0.08360
H1153       H  0.58360420  0.33540323  0.44013326     0.05140
C1154       C  0.93118021  0.25766626  0.54665392    -0.20670
C1155       C  0.96633474  0.22878101  0.54688307    -0.07230
C1156       C  0.96317472  0.19017562  0.57172109     0.13640
C1157       C  0.92651543  0.18283642  0.59744134    -0.20720
C1158       C  0.89321930  0.21327052  0.59923204    -0.07240
C1159       C  0.89421004  0.24981617  0.57168480     0.13630
C1160       C  0.85692689  0.28143687  0.56823363    -0.24070
H1161       H  0.93296814  0.28715751  0.52772521     0.14910
H1162       H  0.92567748  0.15497774  0.61864963     0.14940
C1163       C  0.99893553  0.15704515  0.57240124    -0.24020
H1164       H  0.84463789  0.28336005  0.53590255     0.05150
H1165       H  0.86907677  0.31390336  0.57656359     0.08380
H1166       H  0.82844524  0.27188945  0.58806100     0.08380
H1167       H  0.02979309  0.17107043  0.58508060     0.08360
H1168       H  0.00437666  0.14594089  0.54081145     0.08360
H1169       H  0.99008566  0.12827042  0.59223201     0.05140
C1170       C  0.53904866  0.29476358  0.56714669    -0.20670
C1171       C  0.54550154  0.25613936  0.54664767    -0.07230
C1172       C  0.58668426  0.23532834  0.55088415     0.13640
C1173       C  0.61862822  0.25221223  0.57748510    -0.20720
C1174       C  0.60975543  0.28766067  0.60158364    -0.07240
C1175       C  0.57058928  0.31056628  0.59483831     0.13630
C1176       C  0.56072153  0.34966044  0.61901271    -0.24070
H1177       H  0.50819143  0.31163932  0.56282943     0.14910
H1178       H  0.64888629  0.23452461  0.58303905     0.14940
C1179       C  0.59728570  0.19372150  0.53096921    -0.24020
H1180       H  0.52836635  0.36371603  0.61001299     0.05150
H1181       H  0.58685341  0.37467638  0.61329793     0.08380
H1182       H  0.55972631  0.34080404  0.65246737     0.08380
H1183       H  0.62499384  0.19923529  0.50905614     0.08360
H1184       H  0.56878757  0.17989698  0.51438688     0.08360
H1185       H  0.60741396  0.16926908  0.55495634     0.05140
C1186       C  0.00711131  0.73941678  0.52249536     0.00200
C1187       C  0.50637729  0.74594287  0.48075520     0.00200
C1188       C  0.73611459  0.00130041  0.52436172     0.00200
C1189       C  0.73099448  0.50302779  0.48237175     0.00200
C1190       C  0.63254472  0.78842503  0.64155350     0.42100
N1191       N  0.66038981  0.76102965  0.69667739     0.00990
C1192       C  0.83674104  0.82956894  0.81401574    -0.06890
H1193       H  0.85570622  0.83512789  0.64587442     0.06480
C1194       C  0.84111773  0.67815703  0.65863424    -0.07240
Co1195     Co  0.72250745  0.81956543  0.74147496     0.74180
N1196       N  0.80513719  0.82438572  0.69234204    -0.26420
Co1197     Co  0.82665866  0.77822372  0.73712926     0.74070
C1198       C  0.86570297  0.71302477  0.63639542     0.42200
N1199       N  0.73634874  0.65766173  0.69569730     0.00600
N1200       N  0.84067136  0.73661245  0.69224339     0.00710
N1201       N  0.76851932  0.85693377  0.82145315    -0.47270
H1202       H  0.66607192  0.85460711  0.65186095     0.06470
N1203       N  0.76505751  0.83975715  0.69549617     0.00990
N1204       N  0.84546393  0.73159894  0.78209644     0.00730
C1205       C  0.87067728  0.69994827  0.83660659     0.42340
N1206       N  0.69593122  0.67293982  0.69499641    -0.25870
C1207       C  0.66017785  0.82228633  0.81287506    -0.06790
N1208       N  0.63479644  0.75234535  0.66517669    -0.46980
N1209       N  0.87342686  0.73679734  0.81325723    -0.47200
C1210       C  0.62435371  0.79567298  0.82896291     0.42110
N1211       N  0.77114883  0.83478800  0.78704191     0.00980
N1212       N  0.69605590  0.67137865  0.78571379    -0.25900
N1213       N  0.67589884  0.80108158  0.69592978    -0.26390
N1214       N  0.73542674  0.65362610  0.78652265     0.00620
H1215       H  0.63798564  0.66343532  0.82328685     0.06510
H1216       H  0.83136651  0.63770581  0.82509509     0.06550
N1217       N  0.81077556  0.81859623  0.78283432    -0.26440
N1218       N  0.82570755  0.69639875  0.69271049    -0.26050
N1219       N  0.65938466  0.75976815  0.78534955     0.00990
C1220       C  0.78814630  0.86838286  0.63855640     0.42380
C1221       C  0.67491220  0.65756220  0.66155373    -0.07300
N1222       N  0.82651136  0.69296192  0.78335015    -0.26050
H1223       H  0.83439729  0.64552615  0.64962728     0.06530
N1224       N  0.75375799  0.86584727  0.66433001    -0.47270
H1225       H  0.64139611  0.66452501  0.65198009     0.06520
C1226       C  0.70012712  0.62455010  0.83824398     0.42220
C1227       C  0.65909462  0.82161738  0.66194536    -0.06800
Co1228     Co  0.67701936  0.71583046  0.74078886     0.73820
N1229       N  0.74490662  0.63327556  0.66447452    -0.46990
C1230       C  0.80909396  0.85411578  0.84005704     0.42480
N1231       N  0.62513353  0.75718893  0.81076682    -0.46980
Co1232     Co  0.78171680  0.67384107  0.73985752     0.73890
C1233       C  0.84074666  0.67056366  0.81642511    -0.07310
C1234       C  0.82320287  0.84170213  0.65736220    -0.06870
N1235       N  0.67916537  0.79799568  0.78560561    -0.26400
N1236       N  0.86461614  0.74753640  0.65972832    -0.47160
H1237       H  0.87079702  0.82040068  0.81848990     0.06490
C1238       C  0.67179119  0.65523785  0.81689145    -0.07280
Cl1239     Cl  0.75189607  0.74676643  0.74006298    -0.50280
C1240       C  0.70824171  0.63201999  0.64110180     0.42250
H1241       H  0.66717572  0.85615063  0.81695225     0.06460
N1242       N  0.73913227  0.62430137  0.81754978    -0.46990
C1243       C  0.63404685  0.71704052  0.35711786     0.42100
N1244       N  0.66331873  0.74372940  0.30217531     0.00990
C1245       C  0.83489597  0.67217749  0.18563760    -0.06890
H1246       H  0.85175861  0.66646102  0.35730661     0.06480
C1247       C  0.85285458  0.82364838  0.33751075    -0.07240
Co1248     Co  0.72199650  0.68352502  0.25791483     0.74180
N1249       N  0.80374131  0.67721041  0.30799062    -0.26420
Co1250     Co  0.82733452  0.72316390  0.26236330     0.74070
C1251       C  0.87623592  0.78825208  0.35959471     0.42200
N1252       N  0.74499113  0.84648218  0.30251266     0.00600
N1253       N  0.84418917  0.76450988  0.30626226     0.00710
N1254       N  0.76678338  0.64255116  0.17897400    -0.47270
H1255       H  0.66430825  0.65031668  0.34712171     0.06470
N1256       N  0.76313358  0.66227285  0.30353417     0.00990
N1257       N  0.84772539  0.76919349  0.21723819     0.00730
C1258       C  0.87337906  0.80020563  0.16289602     0.42340
N1259       N  0.70385346  0.83183074  0.30425110    -0.25870
C1260       C  0.66630297  0.68251722  0.18360074    -0.06790
N1261       N  0.63819922  0.75294661  0.33332052    -0.46980
N1262       N  0.87477908  0.76330192  0.18609724    -0.47200
C1263       C  0.63521937  0.70963983  0.16233135     0.42110
N1264       N  0.76952478  0.66659690  0.21238893     0.00980
N1265       N  0.70141612  0.83228869  0.21268873    -0.25900
N1266       N  0.67676145  0.70342129  0.30315887    -0.26390
N1267       N  0.74138508  0.84987022  0.21149714     0.00620
H1268       H  0.64206704  0.84126321  0.17672670     0.06510
H1269       H  0.83652061  0.86272771  0.17327198     0.06550
N1270       N  0.80945899  0.68327894  0.21651443    -0.26440
N1271       N  0.83260772  0.80532390  0.30519267    -0.26050
N1272       N  0.66235103  0.74403776  0.21260773     0.00990
C1273       C  0.78277186  0.63268515  0.36123418     0.42380
C1274       C  0.68571292  0.84802838  0.33847108    -0.07300
N1275       N  0.83042335  0.80800581  0.21547090    -0.26050
H1276       H  0.85175296  0.85712379  0.34411036     0.06530
N1277       N  0.74968955  0.63622794  0.33391927    -0.47270
H1278       H  0.65242119  0.84160594  0.34919145     0.06520
C1279       C  0.70487974  0.88001070  0.16051692     0.42220
C1280       C  0.65905431  0.68340160  0.33707130    -0.06800
Co1281     Co  0.68148965  0.78841977  0.25789834     0.73820
N1282       N  0.75639341  0.87112744  0.33312386    -0.46990
C1283       C  0.80703684  0.64627695  0.15992190     0.42480
N1284       N  0.63288549  0.74749030  0.18195241    -0.46980
Co1285     Co  0.78810721  0.82869994  0.25836911     0.73890
C1286       C  0.84484789  0.82994456  0.18234273    -0.07310
C1287       C  0.81965267  0.65970513  0.34402996    -0.06870
N1288       N  0.68099734  0.70591279  0.21379098    -0.26400
N1289       N  0.86970610  0.75330798  0.33755554    -0.47160
H1290       H  0.86940280  0.68080402  0.18173854     0.06490
C1291       C  0.67659512  0.84885790  0.18210204    -0.07280
Cl1292     Cl  0.75467961  0.75605459  0.25913763    -0.50280
C1293       C  0.72150972  0.87374159  0.35802834     0.42250
H1294       H  0.67464165  0.64933311  0.17880358     0.06460
N1295       N  0.74459452  0.88008988  0.18100490    -0.46990
O1296       O  0.54409728  0.89790373  0.97303250    -0.80500
O1297       O  0.54256180  0.60660507  0.02628806    -0.80520
O1298       O  0.54687430  0.52773877  0.92262342    -0.80530
O1299       O  0.54249576  0.97236586  0.07676636    -0.80470
O1300       O  0.57419991  0.54149087  0.98406820    -0.80590
O1301       O  0.57503974  0.96322586  0.01766122    -0.80510
O1302       O  0.52034353  0.55901248  0.07600437    -0.80500
O1303       O  0.51857945  0.93980255  0.92134856    -0.80530
C1304       C  0.53769762  0.90440539  0.93507138     1.09190
C1305       C  0.54035887  0.59491080  0.06376137     1.09080
C1306       C  0.57934078  0.53804491  0.94548064     1.09210
C1307       C  0.57732042  0.96498495  0.05676526     1.09090
O1308       O  0.00444585  0.90850937  0.04246453    -0.80500
O1309       O  0.00756047  0.59453667  0.95532507    -0.80570
O1310       O  0.92988228  0.97348088  0.93676853    -0.80510
O1311       O  0.92798979  0.52652516  0.05461274    -0.80490
O1312       O  0.95696405  0.58486408  0.02738587    -0.80540
O1313       O  0.95734346  0.91913931  0.97179648    -0.80510
O1314       O  0.94989246  0.94755523  0.05987365    -0.80470
O1315       O  0.95475819  0.55410520  0.93223041    -0.80540
Co1316     Co  0.51714066  0.94533047  0.99251053     1.51530
Co1317     Co  0.51600639  0.55866600  0.00616799     1.51690
Co1318     Co  0.48770268  0.99959897  0.93358654     1.51570
Co1319     Co  0.48514603  0.50099706  0.06179304     1.51470
O1320       O  0.49089871  0.50131084  0.99814699    -1.42430
C1321       C  0.96736471  0.91140902  0.05891697     1.09120
C1322       C  0.97265299  0.59062366  0.93507215     1.09210
C1323       C  0.92599531  0.93539329  0.94991189     1.09150
C1324       C  0.92617874  0.56606239  0.04845635     1.09120
C1325       C  0.65895022  0.94415930  0.14657884    -0.20670
C1326       C  0.68633419  0.91296772  0.13060161    -0.07230
C1327       C  0.68270211  0.90492110  0.08809548     0.13640
C1328       C  0.64963589  0.92550155  0.06357747    -0.20720
C1329       C  0.61876598  0.95314323  0.08073721    -0.07240
C1330       C  0.62523917  0.96404299  0.12269738     0.13630
C1331       C  0.59570833  0.99504983  0.14375686    -0.24070
H1332       H  0.66116151  0.94995940  0.17926839     0.14910
H1333       H  0.64578322  0.91717887  0.03162174     0.14940
C1334       C  0.71219198  0.87259222  0.06918469    -0.24020
H1335       H  0.60864231  0.00298233  0.17471705     0.05150
H1336       H  0.56225048  0.98059795  0.14838697     0.08380
H1337       H  0.59346897  0.02569006  0.12519994     0.08380
H1338       H  0.70681965  0.84027627  0.08435456     0.08360
H1339       H  0.74731201  0.88262561  0.07324550     0.08360
H1340       H  0.70550389  0.86996438  0.03567453     0.05140
C1341       C  0.62876096  0.66706701  0.10262456    -0.20670
C1342       C  0.60629430  0.69094920  0.13137042    -0.07230
C1343       C  0.56141706  0.68142960  0.13962500     0.13640
C1344       C  0.53969888  0.64869825  0.11812336    -0.20720
C1345       C  0.56353203  0.62299822  0.09185362    -0.07240
C1346       C  0.60887587  0.63143857  0.08512884     0.13630
C1347       C  0.63701049  0.60156738  0.06116382    -0.24070
H1348       H  0.66382852  0.67309517  0.09782661     0.14910
H1349       H  0.50460419  0.64277373  0.12226847     0.14940
C1350       C  0.53762023  0.70393291  0.17269920    -0.24020
H1351       H  0.67223909  0.61218699  0.06038740     0.05150
H1352       H  0.62515661  0.60027361  0.02905883     0.08380
H1353       H  0.63542952  0.56858963  0.07560950     0.08380
H1354       H  0.53989753  0.73910983  0.16600529     0.08360
H1355       H  0.55338246  0.69650991  0.20308274     0.08360
H1356       H  0.50231293  0.69372210  0.17448620     0.05140
C1357       C  0.86195138  0.59304246  0.14380898    -0.20670
C1358       C  0.82746485  0.61873317  0.12872724    -0.07230
C1359       C  0.82523948  0.62820580  0.08561802     0.13640
C1360       C  0.85785362  0.61203139  0.05900797    -0.20720
C1361       C  0.89372674  0.58808438  0.07496771    -0.07240
C1362       C  0.89539835  0.57888872  0.11829289     0.13630
C1363       C  0.93383560  0.55579711  0.13886763    -0.24070
H1364       H  0.86472071  0.58691072  0.17686321     0.14910
H1365       H  0.85541704  0.61828455  0.02601173     0.14940
C1366       C  0.78897133  0.65603740  0.06801079    -0.24020
H1367       H  0.93087826  0.55408008  0.17297836     0.05150
H1368       H  0.96500941  0.57352092  0.13152003     0.08380
H1369       H  0.93574736  0.52213942  0.12893577     0.08380
H1370       H  0.79094904  0.68839625  0.08137515     0.08360
H1371       H  0.75635716  0.64088596  0.07551355     0.08360
H1372       H  0.79144134  0.66021951  0.03395862     0.05140
C1373       C  0.87770802  0.83427523  0.09555893    -0.20670
C1374       C  0.90029861  0.81265362  0.12754667    -0.07230
C1375       C  0.94633545  0.81796933  0.13186985     0.13640
C1376       C  0.96867130  0.84685340  0.10487081    -0.20720
C1377       C  0.94472321  0.87366452  0.07741682    -0.07240
C1378       C  0.89861924  0.86711831  0.07242149     0.13630
C1379       C  0.87035923  0.89624829  0.04542245    -0.24070
H1380       H  0.84208537  0.83022132  0.09319028     0.14910
H1381       H  0.00389294  0.85242858  0.10882869     0.14940
C1382       C  0.97061982  0.79771308  0.16799434    -0.24020
H1383       H  0.83542496  0.88475188  0.04412207     0.05150
H1384       H  0.88317266  0.89718696  0.01389153     0.08380
H1385       H  0.87028964  0.92927703  0.05728213     0.08380
H1386       H  0.96581819  0.76226618  0.16786644     0.08360
H1387       H  0.95739840  0.80964010  0.19718425     0.08360
H1388       H  0.00648672  0.80579161  0.16704532     0.05140
C1389       C  0.58673606  0.80206110  0.89416432    -0.20670
C1390       C  0.58820027  0.81319516  0.85232186    -0.07230
C1391       C  0.56567181  0.84995711  0.83677175     0.13640
C1392       C  0.54757130  0.87828190  0.86438937    -0.20720
C1393       C  0.55121646  0.87031999  0.90707644    -0.07240
C1394       C  0.56832664  0.82986715  0.92202816     0.13630
C1395       C  0.56921195  0.81557084  0.96706667    -0.24070
H1396       H  0.60375342  0.77342742  0.90549464     0.14910
H1397       H  0.53243641  0.90766778  0.85251970     0.14940
C1398       C  0.56174590  0.85987376  0.79104210    -0.24020
H1399       H  0.58137010  0.78213767  0.97175538     0.05150
H1400       H  0.53528918  0.81602552  0.97987411     0.08380
H1401       H  0.59188233  0.83670890  0.98458338     0.08380
H1402       H  0.54589367  0.83202920  0.77594541     0.08360
H1403       H  0.59466845  0.86640097  0.77722056     0.08360
H1404       H  0.54120346  0.88866736  0.78429448     0.05140
C1405       C  0.66997679  0.55397192  0.86491270    -0.20670
C1406       C  0.68451760  0.59598528  0.87310413    -0.07230
C1407       C  0.67092622  0.61444053  0.90997033     0.13640
C1408       C  0.63969888  0.59260246  0.93535654    -0.20720
C1409       C  0.62141331  0.55255150  0.92502618    -0.07240
C1410       C  0.63849921  0.53203678  0.89033503     0.13630
C1411       C  0.62260621  0.48766338  0.87914641    -0.24070
H1412       H  0.68008868  0.53986216  0.83652194     0.14910
H1413       H  0.62623805  0.60909816  0.96099896     0.14940
C1414       C  0.68749296  0.65853059  0.92136420    -0.24020
H1415       H  0.64139856  0.47549416  0.85285444     0.05150
H1416       H  0.58723886  0.48816452  0.86998378     0.08380
H1417       H  0.62706785  0.46470950  0.90589334     0.08380
H1418       H  0.67705645  0.68326162  0.89784189     0.08360
H1419       H  0.72414453  0.65859622  0.92346081     0.08360
H1420       H  0.67445778  0.66781626  0.95161081     0.05140
C1421       C  0.94518758  0.68243135  0.86105489    -0.20670
C1422       C  0.90027459  0.68652213  0.87011802    -0.07230
C1423       C  0.88238971  0.66596535  0.90589453     0.13640
C1424       C  0.90826056  0.63669010  0.92858417    -0.20720
C1425       C  0.95140082  0.62838416  0.91638887    -0.07240
C1426       C  0.97124322  0.65316891  0.88401227     0.13630
C1427       C  0.01843228  0.64616163  0.87162775    -0.24070
H1428       H  0.95857029  0.69854021  0.83354188     0.14910
H1429       H  0.89404087  0.61840809  0.95452778     0.14940
C1430       C  0.83552906  0.67355823  0.91913593    -0.24020
H1431       H  0.02824301  0.66763357  0.84495862     0.05150
H1432       H  0.02260929  0.61223436  0.86289549     0.08380
H1433       H  0.54093393  0.65313309  0.89802383     0.08380
H1434       H  0.81156893  0.66255175  0.89562630     0.08360
H1435       H  0.83102977  0.70849314  0.92359511     0.08360
H1436       H  0.82766485  0.65588477  0.94866996     0.05140
C1437       C  0.85628426  0.84666860  0.90244466    -0.20670
C1438       C  0.82566632  0.87179407  0.87943911    -0.07230
C1439       C  0.82125925  0.91541840  0.88867293     0.13640
C1440       C  0.85121769  0.93394044  0.91665500    -0.20720
C1441       C  0.88672288  0.91035136  0.93451299    -0.07240
C1442       C  0.88735188  0.86532896  0.92923239     0.13630
C1443       C  0.92263603  0.83716672  0.94856930    -0.24070
H1444       H  0.85882081  0.81272463  0.89627325     0.14910
H1445       H  0.84925640  0.96818180  0.92159095     0.14940
C1446       C  0.78769477  0.94332874  0.86653087    -0.24020
H1447       H  0.91742332  0.80272613  0.94147044     0.05150
H1448       H  0.92230933  0.83940331  0.98258914     0.08740
H1449       H  0.95559531  0.84726390  0.93656192     0.08380
H1450       H  0.75396878  0.92992812  0.87235700     0.08360
H1451       H  0.79412423  0.94443863  0.83287564     0.08360
H1452       H  0.78890159  0.97692253  0.87714654     0.05140
C1453       C  0.76433249  0.94190568  0.44650605    -0.20670
C1454       C  0.72627299  0.96318659  0.45755567    -0.07230
C1455       C  0.68505410  0.94883842  0.44132010     0.13640
C1456       C  0.68382108  0.91740526  0.41091579    -0.20720
C1457       C  0.72282940  0.90019510  0.39590025    -0.07240
C1458       C  0.76341180  0.91127018  0.41590019     0.13630
C1459       C  0.80685663  0.89272767  0.40451732    -0.24070
H1460       H  0.79552085  0.95071879  0.46066100     0.14910
H1461       H  0.65247336  0.90816361  0.39723567     0.14940
C1462       C  0.64218239  0.46681839  0.45538768    -0.24020
H1463       H  0.83357889  0.90055583  0.42680518     0.05150
H1464       H  0.81678624  0.90741304  0.37428800     0.08380
H1465       H  0.80394165  0.85705944  0.40402049     0.08380
H1466       H  0.63986778  0.50096035  0.44498104     0.08360
H1467       H  0.64007742  0.96354285  0.48943564     0.08360
H1468       H  0.61325012  0.44943218  0.44232319     0.05140
C1469       C  0.79072503  0.54539615  0.44566187    -0.20670
C1470       C  0.74611817  0.54269036  0.45827786    -0.07230
C1471       C  0.71766602  0.57649913  0.44609179     0.13640
C1472       C  0.73270619  0.60830028  0.41740476    -0.20720
C1473       C  0.77560746  0.60780038  0.40072687    -0.07240
C1474       C  0.80575459  0.57741357  0.41689345     0.13630
C1475       C  0.85283852  0.57717439  0.40235015    -0.24070
H1476       H  0.81371506  0.52148198  0.45729010     0.14910
H1477       H  0.70986241  0.63282394  0.40656929     0.14940
C1478       C  0.67158723  0.58037537  0.46258761    -0.24020
H1479       H  0.87182333  0.55074300  0.41780519     0.05150
H1480       H  0.86941288  0.60820894  0.40942404     0.08380
H1481       H  0.85363204  0.57268905  0.36861313     0.08380
H1482       H  0.66332679  0.55500331  0.48631547     0.08360
H1483       H  0.64725259  0.57863340  0.43693544     0.08360
H1484       H  0.66843416  0.61196874  0.47712547     0.05140
C1485       C  0.73657344  0.92204814  0.54562161    -0.20670
C1486       C  0.75653531  0.96319428  0.54692167    -0.07230
C1487       C  0.79524117  0.96823606  0.57160407     0.13640
C1488       C  0.80920213  0.93404995  0.59799017    -0.20720
C1489       C  0.78610918  0.89474229  0.59980262    -0.07240
C1490       C  0.75160804  0.88761036  0.57112874     0.13630
C1491       C  0.73042362  0.84359341  0.56777098    -0.24070
H1492       H  0.70763511  0.91727207  0.52644866     0.14910
H1493       H  0.83589821  0.93930315  0.61979272     0.14940
C1494       C  0.82151721  0.00989137  0.57155364    -0.24020
H1495       H  0.70419856  0.84339051  0.54363743     0.05150
H1496       H  0.71532435  0.83272664  0.59733312     0.08380
H1497       H  0.75596118  0.82015735  0.55961051     0.08380
H1498       H  0.80324681  0.03448716  0.58803454     0.08360
H1499       H  0.82849483  0.02137915  0.53941281     0.08360
H1500       H  0.85375117  0.00581119  0.58773395     0.05140
C1501       C  0.74413068  0.57901007  0.54515343    -0.20670
C1502       C  0.72279556  0.53848314  0.54994673    -0.07230
C1503       C  0.68985159  0.53294989  0.58081866     0.13640
C1504       C  0.68155918  0.56652057  0.60747447    -0.20720
C1505       C  0.70553741  0.60535133  0.60449505    -0.07240
C1506       C  0.73568550  0.61241835  0.57182919     0.13630
C1507       C  0.75971484  0.65509585  0.56560250    -0.24070
H1508       H  0.76982164  0.58389717  0.52243278     0.14910
H1509       H  0.65874425  0.56115099  0.63282552     0.14940
C1510       C  0.66402631  0.49129940  0.58694009    -0.24020
H1511       H  0.78123820  0.65565478  0.53800520     0.05150
H1512       H  0.78087394  0.66171572  0.59266442     0.08380
H1513       H  0.73529158  0.68123959  0.56131195     0.08380
H1514       H  0.68613466  0.96520352  0.59815112     0.08360
H1515       H  0.64798930  0.48251189  0.55760143     0.08360
H1516       H  0.63761277  0.49394276  0.61024470     0.05140
C1517       C  0.89806239  0.74443913  0.42039849    -0.20670
C1518       C  0.90105569  0.78465968  0.39886535    -0.07230
C1519       C  0.93435729  0.81429315  0.40979216     0.13640
C1520       C  0.96607523  0.80138075  0.43940220    -0.20720
C1521       C  0.96605492  0.75921999  0.45724189    -0.07240
C1522       C  0.93083271  0.73064261  0.44823656     0.13630
C1523       C  0.92780810  0.68467900  0.46487724    -0.24070
H1524       H  0.87195457  0.72176327  0.41256224     0.14910
H1525       H  0.99254776  0.82362511  0.44676141     0.14940
C1526       C  0.93849159  0.85809707  0.38848244    -0.24020
H1527       H  0.92667882  0.66251138  0.43884957     0.05150
H1528       H  0.89715011  0.68001446  0.48322375     0.08380
H1529       H  0.95619703  0.67531978  0.48461105     0.08380
H1530       H  0.90830715  0.87680360  0.39393720     0.08360
H1531       H  0.94292079  0.85466432  0.35485887     0.08360
H1532       H  0.96729220  0.87671224  0.40021426     0.05140
C1533       C  0.54454043  0.69653890  0.43566277    -0.20670
C1534       C  0.54519306  0.73637170  0.45508124    -0.07230
C1535       C  0.57994509  0.76621368  0.44645411     0.13640
C1536       C  0.61190594  0.75591101  0.41766677    -0.20720
C1537       C  0.60918476  0.71757364  0.39593236    -0.07240
C1538       C  0.57605863  0.68677383  0.40611662     0.13630
C1539       C  0.57195658  0.64508278  0.38410835    -0.24070
H1540       H  0.51822283  0.67345606  0.44254082     0.14910
H1541       H  0.63752279  0.77964682  0.40987054     0.14940
C1542       C  0.58353768  0.80988795  0.46502264    -0.24020
H1543       H  0.54336318  0.62517090  0.39537835     0.05150
H1544       H  0.60228800  0.62600937  0.38940611     0.08380
H1545       H  0.56724788  0.65181664  0.35053728     0.08380
H1546       H  0.61487980  0.81225483  0.48288110     0.08360
H1547       H  0.55592345  0.81645365  0.48578066     0.08360
H1548       H  0.58367763  0.83541059  0.44006932     0.05140
C1549       C  0.93114561  0.75760691  0.54661554    -0.20670
C1550       C  0.96628240  0.72870134  0.54682985    -0.07230
C1551       C  0.96310852  0.69009609  0.57166662     0.13640
C1552       C  0.92645863  0.68277866  0.59740330    -0.20720
C1553       C  0.89318698  0.71323600  0.59921444    -0.07240
C1554       C  0.89418567  0.74978061  0.57166585     0.13630
C1555       C  0.85692223  0.78142436  0.56823238    -0.24070
H1556       H  0.93294269  0.78709798  0.52768726     0.14910
H1557       H  0.92561343  0.65491892  0.61861011     0.14940
C1558       C  0.99884953  0.65694582  0.57233356    -0.24020
H1559       H  0.84461685  0.78335551  0.53590682     0.05150
H1560       H  0.86909815  0.81388359  0.57655771     0.08380
H1561       H  0.82844538  0.77189373  0.58807211     0.08380
H1562       H  0.02971418  0.67094981  0.58501861     0.08360
H1563       H  0.00428493  0.64585119  0.54073930     0.08360
H1564       H  0.98998395  0.62816862  0.59215479     0.05140
C1565       C  0.53909907  0.79481294  0.56709150    -0.20670
C1566       C  0.54555090  0.75618678  0.54659504    -0.07230
C1567       C  0.58672781  0.73536651  0.55084754     0.13640
C1568       C  0.61866103  0.75223875  0.57746697    -0.20720
C1569       C  0.60978416  0.78768715  0.60156413    -0.07240
C1570       C  0.57062879  0.81060500  0.59479955     0.13630
C1571       C  0.56075848  0.84970061  0.61897095    -0.24070
H1572       H  0.50824814  0.81169666  0.56276226     0.14910
H1573       H  0.64891219  0.73454360  0.58303344     0.14940
C1574       C  0.59733416  0.69376286  0.53092918    -0.24020
H1575       H  0.52841219  0.86376593  0.60995612     0.05150
H1576       H  0.58690040  0.87470959  0.61327019     0.08380
H1577       H  0.55974238  0.84084241  0.65242464     0.08380
H1578       H  0.62505192  0.69927855  0.50902707     0.08360
H1579       H  0.56884220  0.67994407  0.51433430     0.08360
H1580       H  0.60745093  0.66930476  0.55491548     0.05140
loop_ 
_geom_bond_atom_site_label_1 
_geom_bond_atom_site_label_2 
_geom_bond_distance 
_geom_bond_site_symmetry_2 
_ccdc_geom_bond_type 
C1          C365   1.497       .  S
C1         C1171   1.490       .  S
C1          C792   1.362       .  D
C2          C349   1.486       .  S
C2         C1126   1.488   1_455  S
C2          C791   1.362       .  D
C3          C301   1.505       .  S
C3          C712   1.509       .  S
C3          C399   1.370       .  D
C4          C285   1.499       .  S
C4          C664   1.505   1_545  S
C4          C398   1.370       .  D
C5           N23   1.335       .  A
C5           C42   1.470       .  S
C5          C384   1.466       .  S
N6           N23   1.312       .  A
N6           N28   1.321       .  A
N6          Co43   2.032       .  S
C7           N32   1.328       .  A
C7           C45   1.441       .  S
C7           H52   1.080       .  S
H8           C49   1.080       .  S
C9           N33   1.352       .  A
C9           C13   1.472       .  S
C9           H38   1.081       .  S
Co10         N28   2.124       .  S
Co10         N18   2.051       .  S
Co10         N50   2.036       .  S
Co10         N26   2.139       .  S
Co10        Cl54   2.443       .  S
N11          C49   1.353       .  A
N11          N18   1.316       .  A
N11         Co12   2.108       .  S
Co12         N15   2.036       .  S
Co12         N32   2.044       .  S
Co12         N19   2.097       .  S
Co12        Cl54   2.449       .  S
C13          N51   1.337       .  A
C13         C368   1.471       .  S
N14          N21   1.318       .  A
N14          N44   1.318       .  A
N14         Co47   2.048       .  S
N15          N33   1.320       .  A
N15          N51   1.315       .  A
N16          C45   1.366       .  A
N16          N26   1.338       .  A
H17          C42   1.081       .  S
N18          N39   1.318       .  A
N19          N37   1.320       .  A
N19          N24   1.327       .  A
C20          N24   1.349       .  A
C20          C48   1.446       .  S
C20         C237   1.456       .  S
N21          C36   1.353       .  A
N21         Co43   2.122       .  S
C22          N50   1.325       .  A
C22          C25   1.440       .  S
C22          H56   1.082       .  S
C25          N46   1.354       .  A
C25         C205   1.460       .  S
N26          N32   1.317       .  A
N27          C53   1.332       .  A
N27          N29   1.320       .  A
N27         Co43   2.054       .  S
N28          C42   1.353       .  A
N29          N57   1.336       .  A
N29         Co47   2.140       .  S
H30          C53   1.081       .  S
H31          C48   1.081       .  S
N33         Co47   2.126       .  S
N34          N46   1.329       .  A
N34          N50   1.320       .  A
N34         Co43   2.104       .  S
C35          N39   1.339       .  A
C35          C49   1.471       .  S
C35         C304   1.475       .  S
C36          C55   1.471       .  S
C36          H40   1.081       .  S
N37          C48   1.329       .  A
N37         Co47   2.047       .  S
C41          N57   1.362       .  A
C41          C53   1.445       .  S
C41         C221   1.485       .  S
Co43        Cl54   2.445       .  S
N44          C55   1.340       .  A
C45         C253   1.491       .  S
Co47        Cl54   2.450       .  S
C55         C320   1.476       .  S
C58          N76   1.336       .  A
C58          C95   1.474       .  S
C58         C352   1.473       .  S
N59          N76   1.313       .  A
N59          N81   1.321       .  A
N59         Co96   2.031       .  S
C60          N85   1.328       .  A
C60          C98   1.440       .  S
C60         H105   1.080       .  S
H61         C102   1.080       .  S
C62          N86   1.351       .  A
C62          C66   1.476       .  S
C62          H91   1.070       .  S
Co63         N81   2.131       .  S
Co63         N71   2.025       .  S
Co63        N103   1.999       .  S
Co63         N79   2.155       .  S
Co63       Cl107   2.445       .  S
N64         C102   1.359       .  A
N64          N71   1.315       .  A
N64         Co65   2.134       .  S
Co65         N68   2.012       .  S
Co65         N85   2.037       .  S
Co65         N72   2.095       .  S
Co65       Cl107   2.438       .  S
C66         N104   1.334       .  A
C66         C333   1.476       .  S
N67          N74   1.319       .  A
N67          N97   1.318       .  A
N67        Co100   2.043       .  S
N68          N86   1.319       .  A
N68         N104   1.311       .  A
N69          C98   1.371       .  A
N69          N79   1.342       .  A
H70          C95   1.079       .  S
N71          N92   1.313       .  A
N72          N90   1.320       .  A
N72          N77   1.326       .  A
C73          N77   1.347       .  A
C73         C101   1.441       .  S
C73         C189   1.449       .  S
N74          C89   1.360       .  A
N74         Co96   2.157       .  S
C75         N103   1.313       .  A
C75          C78   1.428       .  S
C75         H109   1.082       .  S
C78          N99   1.361       .  A
C78         C157   1.459       .  S
N79          N85   1.314       .  A
N80         C106   1.333       .  A
N80          N82   1.318       .  A
N80         Co96   2.050       .  S
N81          C95   1.353       .  A
N82         N110   1.340       .  A
N82        Co100   2.160       .  S
H83         C106   1.081       .  S
H84         C101   1.081       .  S
N86        Co100   2.136       .  S
N87          N99   1.333       .  A
N87         N103   1.318       .  A
N87         Co96   2.125       .  S
C88          N92   1.335       .  A
C88         C102   1.484       .  S
C88         C288   1.486       .  S
C89         C108   1.488       .  S
C89          H93   1.081       .  S
N90         C101   1.323       .  A
N90        Co100   2.029       .  S
C94         N110   1.369       .  A
C94         C106   1.445       .  S
C94         C141   1.496       .  S
Co96       Cl107   2.445       .  S
N97         C108   1.340       .  A
C98         C173   1.494       .  S
Co100      Cl107   2.455       .  S
C108        C272   1.505       .  S
O111        C119   1.255       .  A
O111       Co131   1.831       .  S
O112        C120   1.258       .  A
O112       Co132   1.820       .  S
O113        C121   1.271       .  A
O113       Co528   2.007   1_445  S
O114        C122   1.270       .  A
O114       Co529   2.012   1_455  S
O115        C121   1.273       .  A
O115       Co132   1.994   1_556  S
O116        C122   1.274       .  A
O116       Co131   2.006   1_554  S
O117        C120   1.309       .  A
O117       Co134   2.141   1_455  S
O118        C119   1.311       .  A
O118       Co133   2.143   1_455  S
C119        C208   1.486       .  S
C120        C160   1.454       .  S
C121        C224   1.495       .  S
C122        C144   1.513       .  S
O123        C136   1.252       .  A
O123       Co921   1.983   1_554  S
O124        C137   1.246       .  A
O124       Co922   1.970   1_556  S
O125        C138   1.245       .  A
O125       Co923   1.918       .  S
O126        C139   1.237       .  A
O126       Co924   1.922       .  S
O127        C139   1.279       .  A
O127       Co922   2.107       .  S
O128        C138   1.279       .  A
O128       Co921   2.091       .  S
O129        C136   1.249       .  A
O129      Co1319   1.962       .  S
O130        C137   1.254       .  A
O130      Co1318   1.978   1_545  S
Co131       O913   1.983   1_556  S
Co131       O918   2.091   1_455  S
Co131       O530   1.939   1_455  S
Co132       O914   1.970   1_554  S
Co132       O917   2.107   1_455  S
Co132       O135   1.950   1_454  S
Co133       O508   2.007   1_655  S
Co133       O915   1.918       .  S
Co133      O1315   1.978       .  S
Co133       O530   2.099       .  S
Co134       O509   2.012   1_645  S
Co134       O916   1.922       .  S
Co134      O1314   1.962   1_545  S
Co134       O135   2.075   1_554  S
O135       Co526   1.939   1_645  S
O135       Co528   2.099   1_545  S
C136        C192   1.458       .  S
C137        C240   1.455       .  S
C138        C256   1.502       .  S
C139        C176   1.501       .  S
C140        H147   1.085       .  S
C140        C141   1.402       .  A
C140        C145   1.412       .  A
C141        C142   1.415       .  A
C142        C143   1.418       .  A
C142        C149   1.505       .  S
C143        H148   1.084       .  S
C143        C144   1.411       .  A
C144        C145   1.428       .  A
C145        C146   1.510       .  S
C146        H150   1.111       .  S
C146        H151   1.109       .  S
C146        H152   1.108       .  S
C149        H153   1.110       .  S
C149        H154   1.110       .  S
C149        H155   1.111       .  S
C156        H163   1.085       .  S
C156        C157   1.401       .  A
C156        C161   1.389       .  A
C157        C158   1.410       .  A
C158        C159   1.406       .  A
C158        C165   1.499       .  S
C159        H164   1.083       .  S
C159        C160   1.402       .  A
C160        C161   1.409       .  A
C161        C162   1.510       .  S
C162        H166   1.110       .  S
C162        H167   1.102       .  S
C162        H168   1.109       .  S
C165        H169   1.106       .  S
C165        H170   1.110       .  S
C165        H171   1.110       .  S
C172        H179   1.086       .  S
C172        C173   1.397       .  A
C172        C177   1.400       .  A
C173        C174   1.420       .  A
C174        C175   1.426       .  A
C174        C181   1.503       .  S
C175        H180   1.084       .  S
C175        C176   1.409       .  A
C176        C177   1.425       .  A
C177        C178   1.513       .  S
C178        H182   1.111       .  S
C178        H183   1.107       .  S
C178        H184   1.108       .  S
C181        H185   1.110       .  S
C181        H186   1.110       .  S
C181        H187   1.111       .  S
C188        H195   1.085       .  S
C188        C189   1.395       .  A
C188        C193   1.389       .  A
C189        C190   1.406       .  A
C190        C191   1.399       .  A
C190        C197   1.502       .  S
C191        H196   1.084       .  S
C191        C192   1.401       .  A
C192        C193   1.415       .  A
C193        C194   1.506       .  S
C194        H198   1.111       .  S
C194        H199   1.097       .  S
C194        H200   1.109       .  S
C197        H201   1.107       .  S
C197        H202   1.111       .  S
C197        H203   1.110       .  S
C204        H211   1.085       .  S
C204        C205   1.390       .  A
C204        C209   1.399       .  A
C205        C206   1.413       .  A
C206        C207   1.401       .  A
C206        C213   1.509       .  S
C207        H212   1.083       .  S
C207        C208   1.402       .  A
C208        C209   1.432       .  A
C209        C210   1.512       .  S
C210        H214   1.111       .  S
C210        H215   1.111       .  S
C210        H216   1.110       .  S
C213        H217   1.110       .  S
C213        H218   1.108       .  S
C213        H219   1.111       .  S
C220        H227   1.084       .  S
C220        C221   1.404       .  A
C220        C225   1.414       .  A
C221        C222   1.414       .  A
C222        C223   1.406       .  A
C222        C229   1.508       .  S
C223        H228   1.080       .  S
C223        C224   1.404       .  A
C224        C225   1.420       .  A
C225        C226   1.508   1_545  S
C226        H230   1.111       .  S
C226        H231   1.108       .  S
C226        H232   1.110       .  S
C229        H233   1.109       .  S
C229        H234   1.110       .  S
C229        H235   1.111       .  S
C236        H243   1.084       .  S
C236        C237   1.401       .  A
C236        C241   1.401       .  A
C237        C238   1.411       .  A
C238        C239   1.394       .  A
C238        C245   1.509       .  S
C239        H244   1.085       .  S
C239        C240   1.397       .  A
C240        C241   1.410       .  A
C241        C242   1.507       .  S
C242        H246   1.111       .  S
C242        H247   1.110       .  S
C242       H1038   1.110       .  S
C245        H249   1.108       .  S
C245        H250   1.110       .  S
C245        H251   1.111       .  S
H248       C1032   1.110       .  S
C252        H259   1.084       .  S
C252        C253   1.411       .  A
C252        C257   1.409       .  A
C253        C254   1.407       .  A
C254        C255   1.410       .  A
C254        C261   1.506       .  S
C255        H260   1.083       .  S
C255        C256   1.417       .  A
C256        C257   1.415       .  A
C257        C258   1.508       .  S
C258        H262   1.111       .  S
C258        H263   1.110       .  S
C258        H264   1.109       .  S
C261        H265   1.110       .  S
C261        H266   1.111       .  S
C261        H267   1.111       .  S
C268        H275   1.082       .  S
C268        C269   1.393       .  A
C268        C273   1.402       .  A
C269        C399   1.505       .  S
C269        C270   1.421       .  A
C270        C271   1.415       .  A
C270        C672   1.501       .  S
C271        H276   1.083       .  S
C271        C272   1.402       .  A
C272        C273   1.428       .  A
C273        C274   1.498       .  S
C274        H278   1.111       .  S
C274        H279   1.108       .  S
C274        H280   1.110       .  S
C277        C665   1.501       .  S
C277        H281   1.103   1_565  S
C277        H283   1.111       .  S
C277        H677   1.108       .  S
H282        C672   1.108       .  S
C284        H291   1.081       .  S
C284        C285   1.413       .  A
C284        C289   1.409       .  A
C285        C286   1.411       .  A
C286        C287   1.403       .  A
C286        C293   1.505       .  S
C287        H292   1.083       .  S
C287        C288   1.410       .  A
C288        C289   1.407       .  A
C289        C290   1.504       .  S
C290        H294   1.111       .  S
C290        H295   1.110       .  S
C290        H296   1.110       .  S
C293        H297   1.107       .  S
C293        H298   1.110       .  S
C293        H299   1.110       .  S
C300        H307   1.082       .  S
C300        C301   1.405       .  A
C300        C305   1.406       .  A
C301        C302   1.424       .  A
C302        C303   1.406       .  A
C302        C309   1.506       .  S
C303        H308   1.084       .  S
C303        C304   1.395       .  A
C304        C305   1.414       .  A
C305        C306   1.507       .  S
C306        H310   1.111       .  S
C306        H311   1.105       .  S
C306        H312   1.110       .  S
C309        H313   1.107       .  S
C309        H314   1.110       .  S
C309        H315   1.111       .  S
C316        H323   1.080       .  S
C316        C317   1.408       .  A
C316        C321   1.404       .  A
C317        C398   1.509       .  S
C317        C318   1.423       .  A
C318        C319   1.407       .  A
C318        C325   1.506   1_545  S
C319        H324   1.084       .  S
C319        C320   1.397       .  A
C320        C321   1.412       .  A
C321        C322   1.508       .  S
C322        H326   1.111       .  S
C322        H327   1.107       .  S
C322        H328   1.110       .  S
C325        H330   1.107       .  S
C325        H331   1.111       .  S
C325        H724   1.107       .  S
H329        C720   1.107       .  S
C332        H339   1.085       .  S
C332        C333   1.409       .  A
C332        C337   1.398       .  A
C333        C334   1.406       .  A
C334        C335   1.405       .  A
C334        C341   1.505       .  S
C335        H340   1.080       .  S
C335        C336   1.410       .  A
C336        C792   1.488       .  S
C336        C337   1.411       .  A
C337        C338   1.507       .  S
C338        H342   1.110       .  S
C338        H343   1.110       .  S
C338        H344   1.103       .  S
C341        H345   1.109       .  S
C341        H346   1.111       .  S
C341        H347   1.111       .  S
C348        H355   1.081       .  S
C348        C349   1.409       .  A
C348        C353   1.403       .  A
C349        C350   1.412       .  A
C350        C351   1.399       .  A
C350        C357   1.507       .  S
C351        H356   1.085       .  S
C351        C352   1.408       .  A
C352        C353   1.406       .  A
C353        C354   1.505       .  S
C354        H358   1.111       .  S
C354        H359   1.109       .  S
C354        H360   1.111       .  S
C357        H361   1.110       .  S
C357        H362   1.104       .  S
C357        H363   1.111       .  S
C364        H371   1.083       .  S
C364        C365   1.402       .  A
C364        C369   1.400       .  A
C365        C366   1.420       .  A
C366        C367   1.404       .  A
C366        C373   1.504       .  S
C367        H372   1.084       .  S
C367        C368   1.395       .  A
C368        C369   1.417       .  A
C369        C370   1.508       .  S
C370        H374   1.111       .  S
C370        H375   1.109       .  S
C370        H376   1.109       .  S
C373        H377   1.107       .  S
C373        H378   1.109       .  S
C373        H379   1.111       .  S
C380        H387   1.083       .  S
C380        C381   1.411       .  A
C380        C385   1.402       .  A
C381        C791   1.490       .  S
C381        C382   1.416       .  A
C382        C383   1.400       .  A
C382        C389   1.507       .  S
C383        H388   1.085       .  S
C383        C384   1.405       .  A
C384        C385   1.403       .  A
C385        C386   1.506       .  S
C386        H390   1.110       .  S
C386        H391   1.110       .  S
C386        H392   1.111       .  S
C389        H393   1.110       .  S
C389        H394   1.103       .  S
C389        H395   1.111       .  S
C396        C760   1.497       .  S
C396       C1566   1.490       .  S
C396       C1187   1.362       .  D
C397       C1521   1.488   1_455  S
C397        C744   1.486       .  S
C397       C1186   1.362       .  D
C398        C696   1.505   1_545  S
C399        C680   1.499       .  S
C400        N418   1.335       .  A
C400        C437   1.470       .  S
C400        C779   1.466       .  S
N401        N418   1.312       .  A
N401        N423   1.320       .  A
N401       Co438   2.032       .  S
C402        N427   1.328       .  A
C402        C440   1.441       .  S
C402        H447   1.080       .  S
H403        C444   1.080       .  S
C404        N428   1.352       .  A
C404        C408   1.472       .  S
C404        H433   1.081       .  S
Co405       N423   2.123       .  S
Co405       N413   2.051       .  S
Co405       N445   2.036       .  S
Co405       N421   2.140       .  S
Co405      Cl449   2.442       .  S
N406        C444   1.353       .  A
N406        N413   1.317       .  A
N406       Co407   2.110       .  S
Co407       N410   2.036       .  S
Co407       N427   2.044       .  S
Co407       N414   2.096       .  S
Co407      Cl449   2.448       .  S
C408        N446   1.337       .  A
C408        C763   1.471       .  S
N409        N416   1.318       .  A
N409        N439   1.318       .  A
N409       Co442   2.048       .  S
N410        N428   1.320       .  A
N410        N446   1.315       .  A
N411        C440   1.366       .  A
N411        N421   1.338       .  A
H412        C437   1.081       .  S
N413        N434   1.318       .  A
N414        N432   1.320       .  A
N414        N419   1.327       .  A
C415        N419   1.349       .  A
C415        C443   1.446       .  S
C415        C632   1.456       .  S
N416        C431   1.353       .  A
N416       Co438   2.123       .  S
C417        N445   1.325       .  A
C417        C420   1.440       .  S
C417        H451   1.082       .  S
C420        N441   1.354       .  A
C420        C600   1.460       .  S
N421        N427   1.318       .  A
N422        C448   1.332       .  A
N422        N424   1.320       .  A
N422       Co438   2.054       .  S
N423        C437   1.353       .  A
N424        N452   1.336       .  A
N424       Co442   2.141       .  S
H425        C448   1.081       .  S
H426        C443   1.081       .  S
N428       Co442   2.125       .  S
N429        N441   1.329       .  A
N429        N445   1.320       .  A
N429       Co438   2.103       .  S
C430        N434   1.339       .  A
C430        C444   1.471       .  S
C430        C699   1.475       .  S
C431        C450   1.471       .  S
C431        H435   1.081       .  S
N432        C443   1.329       .  A
N432       Co442   2.047       .  S
C436        N452   1.363       .  A
C436        C448   1.445       .  S
C436        C616   1.485       .  S
Co438      Cl449   2.446       .  S
N439        C450   1.340       .  A
C440        C648   1.491       .  S
Co442      Cl449   2.451       .  S
C450        C715   1.476       .  S
C453        N471   1.336       .  A
C453        C490   1.474       .  S
C453        C747   1.473       .  S
N454        N471   1.313       .  A
N454        N476   1.321       .  A
N454       Co491   2.031       .  S
C455        N480   1.328       .  A
C455        C493   1.440       .  S
C455        H500   1.080       .  S
H456        C497   1.080       .  S
C457        N481   1.351       .  A
C457        C461   1.476       .  S
C457        H486   1.070       .  S
Co458       N476   2.131       .  S
Co458       N466   2.025       .  S
Co458       N498   1.999       .  S
Co458       N474   2.155       .  S
Co458      Cl502   2.445       .  S
N459        C497   1.359       .  A
N459        N466   1.315       .  A
N459       Co460   2.134       .  S
Co460       N463   2.012       .  S
Co460       N480   2.037       .  S
Co460       N467   2.095       .  S
Co460      Cl502   2.438       .  S
C461        N499   1.334       .  A
C461        C728   1.476       .  S
N462        N469   1.319       .  A
N462        N492   1.318       .  A
N462       Co495   2.043       .  S
N463        N481   1.319       .  A
N463        N499   1.311       .  A
N464        C493   1.371       .  A
N464        N474   1.342       .  A
H465        C490   1.079       .  S
N466        N487   1.313       .  A
N467        N485   1.320       .  A
N467        N472   1.326       .  A
C468        N472   1.347       .  A
C468        C496   1.441       .  S
C468        C584   1.449       .  S
N469        C484   1.360       .  A
N469       Co491   2.157       .  S
C470        N498   1.313       .  A
C470        C473   1.428       .  S
C470        H504   1.082       .  S
C473        N494   1.361       .  A
C473        C552   1.459       .  S
N474        N480   1.314       .  A
N475        C501   1.333       .  A
N475        N477   1.318       .  A
N475       Co491   2.050       .  S
N476        C490   1.353       .  A
N477        N505   1.340       .  A
N477       Co495   2.160       .  S
H478        C501   1.081       .  S
H479        C496   1.081       .  S
N481       Co495   2.136       .  S
N482        N494   1.333       .  A
N482        N498   1.318       .  A
N482       Co491   2.125       .  S
C483        N487   1.335       .  A
C483        C497   1.484       .  S
C483        C683   1.486       .  S
C484        C503   1.488       .  S
C484        H488   1.081       .  S
N485        C496   1.323       .  A
N485       Co495   2.029       .  S
C489        N505   1.369       .  A
C489        C501   1.445       .  S
C489        C536   1.496       .  S
Co491      Cl502   2.445       .  S
N492        C503   1.340       .  A
C493        C568   1.494       .  S
Co495      Cl502   2.455       .  S
C503        C667   1.505       .  S
O506        C514   1.255       .  A
O506       Co526   1.830       .  S
O507        C515   1.258       .  A
O507       Co527   1.820       .  S
O508        C516   1.271       .  A
O509        C517   1.270       .  A
O510        C516   1.273       .  A
O510       Co527   1.994   1_556  S
O511        C517   1.274       .  A
O511       Co526   2.006   1_554  S
O512        C515   1.309       .  A
O512       Co529   2.141   1_455  S
O513        C514   1.311       .  A
O513       Co528   2.143   1_455  S
C514        C603   1.486       .  S
C515        C555   1.454       .  S
C516        C619   1.495       .  S
C517        C539   1.513       .  S
O518        C531   1.252       .  A
O518      Co1316   1.983   1_554  S
O519        C532   1.246       .  A
O519      Co1317   1.970   1_556  S
O520        C533   1.245       .  A
O520      Co1318   1.919       .  S
O521        C534   1.237       .  A
O521      Co1319   1.922       .  S
O522        C534   1.279       .  A
O522      Co1317   2.107       .  S
O523        C533   1.279       .  A
O523      Co1316   2.091       .  S
O524        C531   1.249       .  A
O524       Co924   1.962   1_565  S
O525        C532   1.254       .  A
O525       Co923   1.978       .  S
Co526      O1308   1.983   1_556  S
Co526      O1313   2.091   1_455  S
Co527      O1309   1.970   1_554  S
Co527      O1312   2.107   1_455  S
Co527       O530   1.950   1_454  S
Co528      O1310   1.918       .  S
Co528       O920   1.978   1_565  S
Co529      O1311   1.922       .  S
Co529       O919   1.962       .  S
Co529       O530   2.075   1_554  S
C531        C587   1.458       .  S
C532        C635   1.455       .  S
C533        C651   1.502       .  S
C534        C571   1.501       .  S
C535        H542   1.085       .  S
C535        C536   1.402       .  A
C535        C540   1.412       .  A
C536        C537   1.415       .  A
C537        C538   1.418       .  A
C537        C544   1.505       .  S
C538        H543   1.084       .  S
C538        C539   1.411       .  A
C539        C540   1.428       .  A
C540        C541   1.510       .  S
C541        H545   1.111   1_565  S
C541        H546   1.109       .  S
C541        H547   1.108   1_565  S
C544        H548   1.110       .  S
C544        H549   1.110       .  S
C544        H550   1.111       .  S
C551        H558   1.085       .  S
C551        C552   1.401       .  A
C551        C556   1.389       .  A
C552        C553   1.410       .  A
C553        C554   1.406       .  A
C553        C560   1.499       .  S
C554        H559   1.083       .  S
C554        C555   1.402       .  A
C555        C556   1.409       .  A
C556        C557   1.510       .  S
C557        H561   1.110       .  S
C557        H562   1.102       .  S
C557        H563   1.109       .  S
C560        H564   1.106       .  S
C560        H565   1.110       .  S
C560        H566   1.110       .  S
C567        H574   1.086       .  S
C567        C568   1.397       .  A
C567        C572   1.400       .  A
C568        C569   1.420       .  A
C569        C570   1.426       .  A
C569        C576   1.503       .  S
C570        H575   1.084       .  S
C570        C571   1.409       .  A
C571        C572   1.425       .  A
C572        C573   1.513       .  S
C573        H577   1.111       .  S
C573        H578   1.107       .  S
C573        H579   1.108       .  S
C576        H580   1.110       .  S
C576        H581   1.110       .  S
C576        H582   1.111       .  S
C583        H590   1.085       .  S
C583        C584   1.395       .  A
C583        C588   1.389       .  A
C584        C585   1.406       .  A
C585        C586   1.399       .  A
C585        C592   1.502       .  S
C586        H591   1.084       .  S
C586        C587   1.401       .  A
C587        C588   1.415       .  A
C588        C589   1.506       .  S
C589        H593   1.111       .  S
C589        H594   1.097       .  S
C589        H595   1.109       .  S
C592        H596   1.107       .  S
C592        H597   1.111       .  S
C592        H598   1.110       .  S
C599        H606   1.085       .  S
C599        C600   1.390       .  A
C599        C604   1.399       .  A
C600        C601   1.413       .  A
C601        C602   1.400       .  A
C601        C608   1.509       .  S
C602        H607   1.083       .  S
C602        C603   1.402       .  A
C603        C604   1.432       .  A
C604        C605   1.512       .  S
C605        H609   1.111       .  S
C605        H610   1.111       .  S
C605        H611   1.110       .  S
C608        H612   1.110       .  S
C608        H613   1.108       .  S
C608        H614   1.111       .  S
C615        H622   1.084       .  S
C615        C616   1.404       .  A
C615        C620   1.414       .  A
C616        C617   1.414       .  A
C617        C618   1.407       .  A
C617        C624   1.508       .  S
C618        H623   1.080       .  S
C618        C619   1.404       .  A
C619        C620   1.420       .  A
C620        C621   1.508       .  S
C621        H625   1.111       .  S
C621        H626   1.108       .  S
C621        H627   1.110       .  S
C624        H628   1.109       .  S
C624        H629   1.110       .  S
C624        H630   1.111       .  S
C631        H638   1.084       .  S
C631        C632   1.401       .  A
C631        C636   1.401       .  A
C632        C633   1.411       .  A
C633        C634   1.394       .  A
C633        C640   1.509       .  S
C634        H639   1.085       .  S
C634        C635   1.397       .  A
C635        C636   1.410       .  A
C636        C637   1.507       .  S
C637        H641   1.111       .  S
C637        H642   1.110       .  S
C637       H1433   1.110       .  S
C640        H644   1.108       .  S
C640        H645   1.110       .  S
C640        H646   1.111       .  S
H643       C1427   1.110       .  S
C647        H654   1.084       .  S
C647        C648   1.411       .  A
C647        C652   1.409       .  A
C648        C649   1.407       .  A
C649        C650   1.410       .  A
C649        C656   1.506       .  S
C650        H655   1.083       .  S
C650        C651   1.417       .  A
C651        C652   1.415       .  A
C652        C653   1.508       .  S
C653        H657   1.111       .  S
C653        H658   1.110       .  S
C653        H659   1.109       .  S
C656        H660   1.110       .  S
C656        H661   1.111       .  S
C656        H662   1.111       .  S
C663        H670   1.082       .  S
C663        C664   1.393       .  A
C663        C668   1.402       .  A
C664        C665   1.421       .  A
C665        C666   1.415       .  A
C666        H671   1.083       .  S
C666        C667   1.402       .  A
C667        C668   1.428       .  A
C668        C669   1.498       .  S
C669        H673   1.111       .  S
C669        H674   1.108       .  S
C669        H675   1.110       .  S
C672        H676   1.103       .  S
C672        H678   1.111       .  S
C679        H686   1.081       .  S
C679        C680   1.413       .  A
C679        C684   1.409       .  A
C680        C681   1.411       .  A
C681        C682   1.403       .  A
C681        C688   1.505       .  S
C682        H687   1.083       .  S
C682        C683   1.410       .  A
C683        C684   1.407       .  A
C684        C685   1.504       .  S
C685        H689   1.111       .  S
C685        H690   1.110       .  S
C685        H691   1.110       .  S
C688        H692   1.107       .  S
C688        H693   1.110       .  S
C688        H694   1.110       .  S
C695        H702   1.082       .  S
C695        C696   1.405       .  A
C695        C700   1.406       .  A
C696        C697   1.424       .  A
C697        C698   1.406       .  A
C697        C704   1.506   1_565  S
C698        H703   1.084       .  S
C698        C699   1.395       .  A
C699        C700   1.414       .  A
C700        C701   1.507       .  S
C701        H705   1.111       .  S
C701        H706   1.105       .  S
C701        H707   1.110       .  S
C704        H708   1.107       .  S
C704        H709   1.110       .  S
C704        H710   1.111       .  S
C711        H718   1.080       .  S
C711        C712   1.408       .  A
C711        C716   1.405       .  A
C712        C713   1.423       .  A
C713        C714   1.407       .  A
C713        C720   1.506       .  S
C714        H719   1.084       .  S
C714        C715   1.397       .  A
C715        C716   1.412       .  A
C716        C717   1.508       .  S
C717        H721   1.111       .  S
C717        H722   1.107       .  S
C717        H723   1.110       .  S
C720        H725   1.107       .  S
C720        H726   1.111       .  S
C727        H734   1.085       .  S
C727        C728   1.409       .  A
C727        C732   1.398       .  A
C728        C729   1.406       .  A
C729        C730   1.405       .  A
C729        C736   1.505       .  S
C730        H735   1.080       .  S
C730        C731   1.410       .  A
C731       C1187   1.488       .  S
C731        C732   1.411       .  A
C732        C733   1.507       .  S
C733        H737   1.110       .  S
C733        H738   1.110       .  S
C733        H739   1.103       .  S
C736        H740   1.109       .  S
C736        H741   1.111       .  S
C736        H742   1.111       .  S
C743        H750   1.081       .  S
C743        C744   1.409       .  A
C743        C748   1.403       .  A
C744        C745   1.412       .  A
C745        C746   1.399       .  A
C745        C752   1.507       .  S
C746        H751   1.085       .  S
C746        C747   1.408       .  A
C747        C748   1.406       .  A
C748        C749   1.505       .  S
C749        H753   1.111       .  S
C749        H754   1.109       .  S
C749        H755   1.111       .  S
C752        H756   1.110       .  S
C752        H757   1.104       .  S
C752        H758   1.111       .  S
C759        H766   1.083       .  S
C759        C760   1.402       .  A
C759        C764   1.400       .  A
C760        C761   1.420       .  A
C761        C762   1.403       .  A
C761        C768   1.504       .  S
C762        H767   1.084       .  S
C762        C763   1.395       .  A
C763        C764   1.417       .  A
C764        C765   1.508       .  S
C765        H769   1.111       .  S
C765        H770   1.109       .  S
C765        H771   1.109       .  S
C768        H772   1.107       .  S
C768        H773   1.109       .  S
C768        H774   1.111       .  S
C775        H782   1.083       .  S
C775        C776   1.411       .  A
C775        C780   1.402       .  A
C776       C1186   1.490       .  S
C776        C777   1.416       .  A
C777        C778   1.400       .  A
C777        C784   1.507       .  S
C778        H783   1.085       .  S
C778        C779   1.405       .  A
C779        C780   1.403       .  A
C780        C781   1.506       .  S
C781        H785   1.110       .  S
C781        H786   1.110       .  S
C781        H787   1.111       .  S
C784        H788   1.110       .  S
C784        H789   1.103       .  S
C784        H790   1.111       .  S
C791       C1155   1.497   1_455  S
C792       C1139   1.486       .  S
C793       C1091   1.505       .  S
C793       C1502   1.509       .  S
C793       C1189   1.370       .  D
C794       C1454   1.505   1_545  S
C794       C1075   1.499       .  S
C794       C1188   1.370       .  D
C795        N813   1.335       .  A
C795        C832   1.470       .  S
C795       C1174   1.466       .  S
N796        N813   1.312       .  A
N796        N818   1.321       .  A
N796       Co833   2.032       .  S
C797        N822   1.328       .  A
C797        C835   1.441       .  S
C797        H842   1.080       .  S
H798        C839   1.080       .  S
C799        N823   1.352       .  A
C799        C803   1.472       .  S
C799        H828   1.081       .  S
Co800       N818   2.124       .  S
Co800       N808   2.051       .  S
Co800       N840   2.036       .  S
Co800       N816   2.139       .  S
Co800      Cl844   2.443       .  S
N801        C839   1.353       .  A
N801        N808   1.316       .  A
N801       Co802   2.108       .  S
Co802       N805   2.036       .  S
Co802       N822   2.044       .  S
Co802       N809   2.097       .  S
Co802      Cl844   2.449       .  S
C803        N841   1.337       .  A
C803       C1158   1.471       .  S
N804        N811   1.318       .  A
N804        N834   1.318       .  A
N804       Co837   2.048       .  S
N805        N823   1.320       .  A
N805        N841   1.315       .  A
N806        C835   1.366       .  A
N806        N816   1.338       .  A
H807        C832   1.081       .  S
N808        N829   1.318       .  A
N809        N827   1.320       .  A
N809        N814   1.327       .  A
C810        N814   1.349       .  A
C810        C838   1.446       .  S
C810       C1027   1.456       .  S
N811        C826   1.353       .  A
N811       Co833   2.122       .  S
C812        N840   1.325       .  A
C812        C815   1.440       .  S
C812        H846   1.082       .  S
C815        N836   1.354       .  A
C815        C995   1.460       .  S
N816        N822   1.317       .  A
N817        C843   1.332       .  A
N817        N819   1.320       .  A
N817       Co833   2.054       .  S
N818        C832   1.353       .  A
N819        N847   1.336       .  A
N819       Co837   2.140       .  S
H820        C843   1.081       .  S
H821        C838   1.081       .  S
N823       Co837   2.126       .  S
N824        N836   1.329       .  A
N824        N840   1.320       .  A
N824       Co833   2.104       .  S
C825        N829   1.339       .  A
C825        C839   1.470       .  S
C825       C1094   1.475       .  S
C826        C845   1.471       .  S
C826        H830   1.081       .  S
N827        C838   1.329       .  A
N827       Co837   2.048       .  S
C831        N847   1.362       .  A
C831        C843   1.445       .  S
C831       C1011   1.485       .  S
Co833      Cl844   2.445       .  S
N834        C845   1.340       .  A
C835       C1043   1.491       .  S
Co837      Cl844   2.450       .  S
C845       C1110   1.476       .  S
C848        N866   1.336       .  A
C848        C885   1.474       .  S
C848       C1142   1.473       .  S
N849        N866   1.313       .  A
N849        N871   1.321       .  A
N849       Co886   2.031       .  S
C850        N875   1.328       .  A
C850        C888   1.440       .  S
C850        H895   1.080       .  S
H851        C892   1.080       .  S
C852        N876   1.351       .  A
C852        C856   1.476       .  S
C852        H881   1.070       .  S
Co853       N871   2.131       .  S
Co853       N861   2.025       .  S
Co853       N893   1.999       .  S
Co853       N869   2.155       .  S
Co853      Cl897   2.445       .  S
N854        C892   1.359       .  A
N854        N861   1.315       .  A
N854       Co855   2.134       .  S
Co855       N858   2.012       .  S
Co855       N875   2.037       .  S
Co855       N862   2.095       .  S
Co855      Cl897   2.438       .  S
C856        N894   1.334       .  A
C856       C1123   1.476       .  S
N857        N864   1.319       .  A
N857        N887   1.318       .  A
N857       Co890   2.043       .  S
N858        N876   1.319       .  A
N858        N894   1.311       .  A
N859        C888   1.371       .  A
N859        N869   1.342       .  A
H860        C885   1.079       .  S
N861        N882   1.313       .  A
N862        N880   1.320       .  A
N862        N867   1.326       .  A
C863        N867   1.347       .  A
C863        C891   1.441       .  S
C863        C979   1.449       .  S
N864        C879   1.360       .  A
N864       Co886   2.157       .  S
C865        N893   1.313       .  A
C865        C868   1.428       .  S
C865        H899   1.082       .  S
C868        N889   1.361       .  A
C868        C947   1.459       .  S
N869        N875   1.314       .  A
N870        C896   1.333       .  A
N870        N872   1.318       .  A
N870       Co886   2.050       .  S
N871        C885   1.353       .  A
N872        N900   1.340       .  A
N872       Co890   2.160       .  S
H873        C896   1.081       .  S
H874        C891   1.081       .  S
N876       Co890   2.137       .  S
N877        N889   1.333       .  A
N877        N893   1.318       .  A
N877       Co886   2.125       .  S
C878        N882   1.335       .  A
C878        C892   1.484       .  S
C878       C1078   1.486       .  S
C879        C898   1.488       .  S
C879        H883   1.081       .  S
N880        C891   1.323       .  A
N880       Co890   2.029       .  S
C884        N900   1.369       .  A
C884        C896   1.445       .  S
C884        C931   1.496       .  S
Co886      Cl897   2.445       .  S
N887        C898   1.340       .  A
C888        C963   1.494       .  S
Co890      Cl897   2.455       .  S
C898       C1062   1.505       .  S
O901        C909   1.255       .  A
O901       Co921   1.831       .  S
O902        C910   1.258       .  A
O902       Co922   1.820       .  S
O903        C911   1.271       .  A
O903      Co1318   2.007   1_545  S
O904        C912   1.270       .  A
O904      Co1319   2.012       .  S
O905        C911   1.273       .  A
O905       Co922   1.994   1_556  S
O906        C912   1.274       .  A
O906       Co921   2.006   1_554  S
O907        C910   1.309       .  A
O907       Co924   2.141       .  S
O908        C909   1.311       .  A
O908       Co923   2.143       .  S
C909        C998   1.486       .  S
C910        C950   1.454       .  S
C911       C1014   1.495       .  S
C912        C934   1.513       .  S
O913        C926   1.252   1_455  A
O914        C927   1.246   1_455  A
O915        C928   1.245       .  A
O916        C929   1.237       .  A
O917        C929   1.279       .  A
O918        C928   1.279       .  A
O919        C926   1.249       .  A
O920        C927   1.254       .  A
Co921      O1320   1.939       .  S
Co922       O925   1.950   1_554  S
Co923      O1298   2.007       .  S
Co923      O1320   2.099       .  S
Co924      O1299   2.012   1_545  S
Co924       O925   2.075   1_554  S
O925      Co1316   1.939   1_545  S
O925      Co1318   2.099   1_545  S
C926        C982   1.458       .  S
C927       C1030   1.455       .  S
C928       C1046   1.502       .  S
C929        C966   1.501       .  S
C930        H937   1.085       .  S
C930        C931   1.401       .  A
C930        C935   1.412       .  A
C931        C932   1.415       .  A
C932        C933   1.418       .  A
C932        C939   1.505       .  S
C933        H938   1.084       .  S
C933        C934   1.411       .  A
C934        C935   1.428       .  A
C935        C936   1.510       .  S
C936        H940   1.111       .  S
C936        H941   1.109       .  S
C936        H942   1.108       .  S
C939        H943   1.110       .  S
C939        H944   1.110       .  S
C939        H945   1.111       .  S
C946        H953   1.085       .  S
C946        C947   1.401       .  A
C946        C951   1.389       .  A
C947        C948   1.410       .  A
C948        C949   1.406       .  A
C948        C955   1.499       .  S
C949        H954   1.083       .  S
C949        C950   1.402       .  A
C950        C951   1.409       .  A
C951        C952   1.510       .  S
C952        H956   1.110       .  S
C952        H957   1.102       .  S
C952        H958   1.109       .  S
C955        H959   1.106       .  S
C955        H960   1.110       .  S
C955        H961   1.110       .  S
C962        H969   1.086       .  S
C962        C963   1.397       .  A
C962        C967   1.399       .  A
C963        C964   1.420       .  A
C964        C965   1.426       .  A
C964        C971   1.503       .  S
C965        H970   1.084       .  S
C965        C966   1.409       .  A
C966        C967   1.425       .  A
C967        C968   1.513       .  S
C968        H972   1.111       .  S
C968        H973   1.107       .  S
C968        H974   1.108       .  S
C971        H975   1.110       .  S
C971        H976   1.110       .  S
C971        H977   1.111       .  S
C978        H985   1.085       .  S
C978        C979   1.395       .  A
C978        C983   1.389       .  A
C979        C980   1.406       .  A
C980        C981   1.399       .  A
C980        C987   1.502       .  S
C981        H986   1.084   1_655  S
C981        C982   1.401       .  A
C982        C983   1.415       .  A
C983        C984   1.506       .  S
C984        H988   1.111       .  S
C984        H989   1.097       .  S
C984        H990   1.109       .  S
C987        H991   1.107       .  S
C987        H992   1.111       .  S
C987        H993   1.110   1_655  S
C994       H1001   1.085       .  S
C994        C995   1.390       .  A
C994        C999   1.399       .  A
C995        C996   1.413       .  A
C996        C997   1.401       .  A
C996       C1003   1.509       .  S
C997       H1002   1.083       .  S
C997        C998   1.402       .  A
C998        C999   1.432       .  A
C999       C1000   1.512       .  S
C1000      H1004   1.111       .  S
C1000      H1005   1.111       .  S
C1000      H1006   1.110       .  S
C1003      H1007   1.110       .  S
C1003      H1008   1.108       .  S
C1003      H1009   1.111       .  S
C1010      H1017   1.084       .  S
C1010      C1011   1.404       .  A
C1010      C1015   1.414       .  A
C1011      C1012   1.414       .  A
C1012      C1013   1.406       .  A
C1012      C1019   1.508       .  S
C1013      H1018   1.080       .  S
C1013      C1014   1.404       .  A
C1014      C1015   1.420       .  A
C1015      C1016   1.508   1_545  S
C1016      H1020   1.111       .  S
C1016      H1021   1.108       .  S
C1016      H1022   1.110       .  S
C1019      H1023   1.109       .  S
C1019      H1024   1.110       .  S
C1019      H1025   1.111       .  S
C1026      H1033   1.084       .  S
C1026      C1027   1.401       .  A
C1026      C1031   1.401       .  A
C1027      C1028   1.411       .  A
C1028      C1029   1.394       .  A
C1028      C1035   1.509       .  S
C1029      H1034   1.085       .  S
C1029      C1030   1.397       .  A
C1030      C1031   1.410       .  A
C1031      C1032   1.507   1_655  S
C1032      H1036   1.111       .  S
C1032      H1037   1.110       .  S
C1035      H1039   1.108       .  S
C1035      H1040   1.110       .  S
C1035      H1041   1.111       .  S
C1042      H1049   1.084       .  S
C1042      C1043   1.411       .  A
C1042      C1047   1.409       .  A
C1043      C1044   1.407       .  A
C1044      C1045   1.410       .  A
C1044      C1051   1.506       .  S
C1045      H1050   1.083       .  S
C1045      C1046   1.417       .  A
C1046      C1047   1.415       .  A
C1047      C1048   1.508       .  S
C1048      H1052   1.111       .  S
C1048      H1053   1.110       .  S
C1048      H1054   1.109       .  S
C1051      H1055   1.110       .  S
C1051      H1056   1.111       .  S
C1051      H1057   1.111       .  S
C1058      H1065   1.082       .  S
C1058      C1059   1.393       .  A
C1058      C1063   1.402       .  A
C1059      C1189   1.505       .  S
C1059      C1060   1.421       .  A
C1060      C1061   1.415       .  A
C1060      C1462   1.501       .  S
C1061      H1066   1.083       .  S
C1061      C1062   1.402       .  A
C1062      C1063   1.428       .  A
C1063      C1064   1.498       .  S
C1064      H1068   1.111       .  S
C1064      H1069   1.108       .  S
C1064      H1070   1.110       .  S
C1067      C1455   1.501       .  S
C1067      H1071   1.103   1_565  S
C1067      H1467   1.108       .  S
C1067      H1073   1.111       .  S
H1072      C1462   1.108       .  S
C1074      H1081   1.081       .  S
C1074      C1075   1.413       .  A
C1074      C1079   1.409       .  A
C1075      C1076   1.411       .  A
C1076      C1077   1.403       .  A
C1076      C1083   1.505       .  S
C1077      H1082   1.083       .  S
C1077      C1078   1.410       .  A
C1078      C1079   1.407       .  A
C1079      C1080   1.504       .  S
C1080      H1084   1.111       .  S
C1080      H1085   1.110       .  S
C1080      H1086   1.110       .  S
C1083      H1087   1.107       .  S
C1083      H1088   1.110       .  S
C1083      H1089   1.110       .  S
C1090      H1097   1.082       .  S
C1090      C1091   1.405       .  A
C1090      C1095   1.406       .  A
C1091      C1092   1.424       .  A
C1092      C1093   1.406       .  A
C1092      C1099   1.506       .  S
C1093      H1098   1.084       .  S
C1093      C1094   1.395       .  A
C1094      C1095   1.414       .  A
C1095      C1096   1.507       .  S
C1096      H1100   1.111       .  S
C1096      H1101   1.105       .  S
C1096      H1102   1.110       .  S
C1099      H1103   1.107       .  S
C1099      H1104   1.110       .  S
C1099      H1105   1.111       .  S
C1106      H1113   1.080       .  S
C1106      C1107   1.408       .  A
C1106      C1111   1.405       .  A
C1107      C1188   1.509       .  S
C1107      C1108   1.423       .  A
C1108      C1109   1.407       .  A
C1108      C1115   1.506   1_545  S
C1109      H1114   1.084       .  S
C1109      C1110   1.397       .  A
C1110      C1111   1.412       .  A
C1111      C1112   1.508       .  S
C1112      H1116   1.111       .  S
C1112      H1117   1.107       .  S
C1112      H1118   1.110       .  S
C1115      H1514   1.107       .  S
C1115      H1120   1.107       .  S
C1115      H1121   1.111       .  S
H1119      C1510   1.107       .  S
C1122      H1129   1.085       .  S
C1122      C1123   1.409       .  A
C1122      C1127   1.398       .  A
C1123      C1124   1.406       .  A
C1124      C1125   1.405       .  A
C1124      C1131   1.505       .  S
C1125      H1130   1.080       .  S
C1125      C1126   1.410       .  A
C1126      C1127   1.411       .  A
C1127      C1128   1.507       .  S
C1128      H1132   1.110       .  S
C1128      H1133   1.110       .  S
C1128      H1134   1.103       .  S
C1131      H1135   1.109       .  S
C1131      H1136   1.111       .  S
C1131      H1137   1.111       .  S
C1138      H1145   1.081       .  S
C1138      C1139   1.409       .  A
C1138      C1143   1.403       .  A
C1139      C1140   1.412       .  A
C1140      C1141   1.399       .  A
C1140      C1147   1.507       .  S
C1141      H1146   1.085       .  S
C1141      C1142   1.408       .  A
C1142      C1143   1.406       .  A
C1143      C1144   1.505       .  S
C1144      H1148   1.111       .  S
C1144      H1149   1.109       .  S
C1144      H1150   1.111       .  S
C1147      H1151   1.110       .  S
C1147      H1152   1.104       .  S
C1147      H1153   1.111       .  S
C1154      H1161   1.083       .  S
C1154      C1155   1.402       .  A
C1154      C1159   1.400       .  A
C1155      C1156   1.420       .  A
C1156      C1157   1.404       .  A
C1156      C1163   1.504       .  S
C1157      H1162   1.084       .  S
C1157      C1158   1.395       .  A
C1158      C1159   1.417       .  A
C1159      C1160   1.508       .  S
C1160      H1164   1.111       .  S
C1160      H1165   1.109       .  S
C1160      H1166   1.109       .  S
C1163      H1167   1.107   1_655  S
C1163      H1168   1.109   1_655  S
C1163      H1169   1.111       .  S
C1170      H1177   1.083       .  S
C1170      C1171   1.411       .  A
C1170      C1175   1.402       .  A
C1171      C1172   1.416       .  A
C1172      C1173   1.400       .  A
C1172      C1179   1.507       .  S
C1173      H1178   1.085       .  S
C1173      C1174   1.405       .  A
C1174      C1175   1.403       .  A
C1175      C1176   1.506       .  S
C1176      H1180   1.110       .  S
C1176      H1181   1.110       .  S
C1176      H1182   1.111       .  S
C1179      H1183   1.110       .  S
C1179      H1184   1.103       .  S
C1179      H1185   1.111       .  S
C1186      C1550   1.497   1_455  S
C1187      C1534   1.486       .  S
C1188      C1486   1.505   1_545  S
C1189      C1470   1.499       .  S
C1190      N1208   1.335       .  A
C1190      C1227   1.470       .  S
C1190      C1569   1.466       .  S
N1191      N1208   1.312       .  A
N1191      N1213   1.321       .  A
N1191     Co1228   2.032       .  S
C1192      N1217   1.328       .  A
C1192      C1230   1.441       .  S
C1192      H1237   1.080       .  S
H1193      C1234   1.080       .  S
C1194      N1218   1.352       .  A
C1194      C1198   1.472       .  S
C1194      H1223   1.081       .  S
Co1195     N1213   2.124       .  S
Co1195     N1203   2.051       .  S
Co1195     N1235   2.036       .  S
Co1195     N1211   2.139       .  S
Co1195    Cl1239   2.443       .  S
N1196      C1234   1.353       .  A
N1196      N1203   1.316       .  A
N1196     Co1197   2.108       .  S
Co1197     N1200   2.036       .  S
Co1197     N1217   2.044       .  S
Co1197     N1204   2.097       .  S
Co1197    Cl1239   2.449       .  S
C1198      N1236   1.337       .  A
C1198      C1553   1.471       .  S
N1199      N1206   1.318       .  A
N1199      N1229   1.318       .  A
N1199     Co1232   2.048       .  S
N1200      N1218   1.320       .  A
N1200      N1236   1.315       .  A
N1201      C1230   1.366       .  A
N1201      N1211   1.338       .  A
H1202      C1227   1.081       .  S
N1203      N1224   1.318       .  A
N1204      N1222   1.320       .  A
N1204      N1209   1.327       .  A
C1205      N1209   1.349       .  A
C1205      C1233   1.446       .  S
C1205      C1422   1.456       .  S
N1206      C1221   1.353       .  A
N1206     Co1228   2.122       .  S
C1207      N1235   1.325       .  A
C1207      C1210   1.440       .  S
C1207      H1241   1.082       .  S
C1210      N1231   1.354       .  A
C1210      C1390   1.460       .  S
N1211      N1217   1.317       .  A
N1212      C1238   1.332       .  A
N1212      N1214   1.320       .  A
N1212     Co1228   2.054       .  S
N1213      C1227   1.353       .  A
N1214      N1242   1.336       .  A
N1214     Co1232   2.140       .  S
H1215      C1238   1.081       .  S
H1216      C1233   1.081       .  S
N1218     Co1232   2.126       .  S
N1219      N1231   1.329       .  A
N1219      N1235   1.320       .  A
N1219     Co1228   2.104       .  S
C1220      N1224   1.339       .  A
C1220      C1234   1.470       .  S
C1220      C1489   1.475       .  S
C1221      C1240   1.471       .  S
C1221      H1225   1.081       .  S
N1222      C1233   1.329       .  A
N1222     Co1232   2.048       .  S
C1226      N1242   1.362       .  A
C1226      C1238   1.445       .  S
C1226      C1406   1.485       .  S
Co1228    Cl1239   2.445       .  S
N1229      C1240   1.340       .  A
C1230      C1438   1.491       .  S
Co1232    Cl1239   2.450       .  S
C1240      C1505   1.476       .  S
C1243      N1261   1.336       .  A
C1243      C1280   1.474       .  S
C1243      C1537   1.473       .  S
N1244      N1261   1.313       .  A
N1244      N1266   1.321       .  A
N1244     Co1281   2.031       .  S
C1245      N1270   1.328       .  A
C1245      C1283   1.440       .  S
C1245      H1290   1.080       .  S
H1246      C1287   1.080       .  S
C1247      N1271   1.351       .  A
C1247      C1251   1.476       .  S
C1247      H1276   1.070       .  S
Co1248     N1266   2.131       .  S
Co1248     N1256   2.025       .  S
Co1248     N1288   1.999       .  S
Co1248     N1264   2.155       .  S
Co1248    Cl1292   2.445       .  S
N1249      C1287   1.359       .  A
N1249      N1256   1.315       .  A
N1249     Co1250   2.134       .  S
Co1250     N1253   2.012       .  S
Co1250     N1270   2.037       .  S
Co1250     N1257   2.095       .  S
Co1250    Cl1292   2.438       .  S
C1251      N1289   1.334       .  A
C1251      C1518   1.476       .  S
N1252      N1259   1.319       .  A
N1252      N1282   1.318       .  A
N1252     Co1285   2.043       .  S
N1253      N1271   1.319       .  A
N1253      N1289   1.311       .  A
N1254      C1283   1.371       .  A
N1254      N1264   1.342       .  A
H1255      C1280   1.079       .  S
N1256      N1277   1.313       .  A
N1257      N1275   1.320       .  A
N1257      N1262   1.326       .  A
C1258      N1262   1.347       .  A
C1258      C1286   1.441       .  S
C1258      C1374   1.449       .  S
N1259      C1274   1.360       .  A
N1259     Co1281   2.157       .  S
C1260      N1288   1.313       .  A
C1260      C1263   1.428       .  S
C1260      H1294   1.082       .  S
C1263      N1284   1.361       .  A
C1263      C1342   1.459       .  S
N1264      N1270   1.314       .  A
N1265      C1291   1.333       .  A
N1265      N1267   1.318       .  A
N1265     Co1281   2.050       .  S
N1266      C1280   1.353       .  A
N1267      N1295   1.340       .  A
N1267     Co1285   2.160       .  S
H1268      C1291   1.081       .  S
H1269      C1286   1.081       .  S
N1271     Co1285   2.137       .  S
N1272      N1284   1.333       .  A
N1272      N1288   1.318       .  A
N1272     Co1281   2.125       .  S
C1273      N1277   1.335       .  A
C1273      C1287   1.484       .  S
C1273      C1473   1.486       .  S
C1274      C1293   1.488       .  S
C1274      H1278   1.081       .  S
N1275      C1286   1.323       .  A
N1275     Co1285   2.029       .  S
C1279      N1295   1.369       .  A
C1279      C1291   1.445       .  S
C1279      C1326   1.496       .  S
Co1281    Cl1292   2.445       .  S
N1282      C1293   1.340       .  A
C1283      C1358   1.494       .  S
Co1285    Cl1292   2.455       .  S
C1293      C1457   1.505       .  S
O1296      C1304   1.255       .  A
O1296     Co1316   1.831       .  S
O1297      C1305   1.258       .  A
O1297     Co1317   1.820       .  S
O1298      C1306   1.271       .  A
O1299      C1307   1.270       .  A
O1300      C1306   1.273       .  A
O1300     Co1317   1.994   1_556  S
O1301      C1307   1.274       .  A
O1301     Co1316   2.006   1_554  S
O1302      C1305   1.309       .  A
O1302     Co1319   2.141       .  S
O1303      C1304   1.311       .  A
O1303     Co1318   2.143       .  S
C1304      C1393   1.486       .  S
C1305      C1345   1.454       .  S
C1306      C1409   1.495       .  S
C1307      C1329   1.513       .  S
O1308      C1321   1.252   1_455  A
O1309      C1322   1.246   1_455  A
O1310      C1323   1.245       .  A
O1311      C1324   1.237       .  A
O1312      C1324   1.279       .  A
O1313      C1323   1.279       .  A
O1314      C1321   1.249       .  A
O1315      C1322   1.254       .  A
Co1317     O1320   1.950   1_554  S
Co1319     O1320   2.075   1_554  S
C1321      C1377   1.458       .  S
C1322      C1425   1.455       .  S
C1323      C1441   1.502       .  S
C1324      C1361   1.501       .  S
C1325      H1332   1.085       .  S
C1325      C1326   1.402       .  A
C1325      C1330   1.412       .  A
C1326      C1327   1.415       .  A
C1327      C1328   1.418       .  A
C1327      C1334   1.505       .  S
C1328      H1333   1.084       .  S
C1328      C1329   1.411       .  A
C1329      C1330   1.428       .  A
C1330      C1331   1.510       .  S
C1331      H1335   1.111   1_565  S
C1331      H1336   1.109       .  S
C1331      H1337   1.108   1_565  S
C1334      H1338   1.110       .  S
C1334      H1339   1.110       .  S
C1334      H1340   1.111       .  S
C1341      H1348   1.085       .  S
C1341      C1342   1.401       .  A
C1341      C1346   1.389       .  A
C1342      C1343   1.410       .  A
C1343      C1344   1.406       .  A
C1343      C1350   1.499       .  S
C1344      H1349   1.083       .  S
C1344      C1345   1.402       .  A
C1345      C1346   1.409       .  A
C1346      C1347   1.510       .  S
C1347      H1351   1.110       .  S
C1347      H1352   1.102       .  S
C1347      H1353   1.109       .  S
C1350      H1354   1.106       .  S
C1350      H1355   1.110       .  S
C1350      H1356   1.110       .  S
C1357      H1364   1.086       .  S
C1357      C1358   1.397       .  A
C1357      C1362   1.400       .  A
C1358      C1359   1.420       .  A
C1359      C1360   1.426       .  A
C1359      C1366   1.503       .  S
C1360      H1365   1.084       .  S
C1360      C1361   1.409       .  A
C1361      C1362   1.425       .  A
C1362      C1363   1.513       .  S
C1363      H1367   1.111       .  S
C1363      H1368   1.107       .  S
C1363      H1369   1.108       .  S
C1366      H1370   1.110       .  S
C1366      H1371   1.110       .  S
C1366      H1372   1.111       .  S
C1373      H1380   1.085       .  S
C1373      C1374   1.395       .  A
C1373      C1378   1.389       .  A
C1374      C1375   1.406       .  A
C1375      C1376   1.399       .  A
C1375      C1382   1.502       .  S
C1376      H1381   1.084   1_655  S
C1376      C1377   1.401       .  A
C1377      C1378   1.415       .  A
C1378      C1379   1.506       .  S
C1379      H1383   1.111       .  S
C1379      H1384   1.097       .  S
C1379      H1385   1.109       .  S
C1382      H1386   1.107       .  S
C1382      H1387   1.111       .  S
C1382      H1388   1.110   1_655  S
C1389      H1396   1.085       .  S
C1389      C1390   1.390       .  A
C1389      C1394   1.399       .  A
C1390      C1391   1.413       .  A
C1391      C1392   1.401       .  A
C1391      C1398   1.509       .  S
C1392      H1397   1.083       .  S
C1392      C1393   1.402       .  A
C1393      C1394   1.432       .  A
C1394      C1395   1.512       .  S
C1395      H1399   1.111       .  S
C1395      H1400   1.111       .  S
C1395      H1401   1.110       .  S
C1398      H1402   1.110       .  S
C1398      H1403   1.108       .  S
C1398      H1404   1.111       .  S
C1405      H1412   1.084       .  S
C1405      C1406   1.404       .  A
C1405      C1410   1.414       .  A
C1406      C1407   1.414       .  A
C1407      C1408   1.406       .  A
C1407      C1414   1.508       .  S
C1408      H1413   1.080       .  S
C1408      C1409   1.404       .  A
C1409      C1410   1.420       .  A
C1410      C1411   1.508       .  S
C1411      H1415   1.111       .  S
C1411      H1416   1.108       .  S
C1411      H1417   1.110       .  S
C1414      H1418   1.109       .  S
C1414      H1419   1.110       .  S
C1414      H1420   1.111       .  S
C1421      H1428   1.084       .  S
C1421      C1422   1.401       .  A
C1421      C1426   1.401       .  A
C1422      C1423   1.411       .  A
C1423      C1424   1.394       .  A
C1423      C1430   1.509       .  S
C1424      H1429   1.085       .  S
C1424      C1425   1.397       .  A
C1425      C1426   1.410       .  A
C1426      C1427   1.507   1_655  S
C1427      H1431   1.111       .  S
C1427      H1432   1.110       .  S
C1430      H1434   1.108       .  S
C1430      H1435   1.110       .  S
C1430      H1436   1.111       .  S
C1437      H1444   1.084       .  S
C1437      C1438   1.411       .  A
C1437      C1442   1.409       .  A
C1438      C1439   1.407       .  A
C1439      C1440   1.410       .  A
C1439      C1446   1.506       .  S
C1440      H1445   1.083       .  S
C1440      C1441   1.417       .  A
C1441      C1442   1.415       .  A
C1442      C1443   1.508       .  S
C1443      H1447   1.111       .  S
C1443      H1448   1.110       .  S
C1443      H1449   1.109       .  S
C1446      H1450   1.110       .  S
C1446      H1451   1.111       .  S
C1446      H1452   1.111       .  S
C1453      H1460   1.082       .  S
C1453      C1454   1.393       .  A
C1453      C1458   1.402       .  A
C1454      C1455   1.421       .  A
C1455      C1456   1.415       .  A
C1456      H1461   1.083       .  S
C1456      C1457   1.402       .  A
C1457      C1458   1.428       .  A
C1458      C1459   1.498       .  S
C1459      H1463   1.111       .  S
C1459      H1464   1.108       .  S
C1459      H1465   1.110       .  S
C1462      H1466   1.103       .  S
C1462      H1468   1.111       .  S
C1469      H1476   1.081       .  S
C1469      C1470   1.413       .  A
C1469      C1474   1.409       .  A
C1470      C1471   1.411       .  A
C1471      C1472   1.403       .  A
C1471      C1478   1.505       .  S
C1472      H1477   1.083       .  S
C1472      C1473   1.410       .  A
C1473      C1474   1.407       .  A
C1474      C1475   1.504       .  S
C1475      H1479   1.111       .  S
C1475      H1480   1.110       .  S
C1475      H1481   1.110       .  S
C1478      H1482   1.107       .  S
C1478      H1483   1.110       .  S
C1478      H1484   1.110       .  S
C1485      H1492   1.082       .  S
C1485      C1486   1.405       .  A
C1485      C1490   1.406       .  A
C1486      C1487   1.424       .  A
C1487      C1488   1.406       .  A
C1487      C1494   1.506   1_565  S
C1488      H1493   1.084       .  S
C1488      C1489   1.395       .  A
C1489      C1490   1.414       .  A
C1490      C1491   1.507       .  S
C1491      H1495   1.111       .  S
C1491      H1496   1.105       .  S
C1491      H1497   1.110       .  S
C1494      H1498   1.107       .  S
C1494      H1499   1.110       .  S
C1494      H1500   1.111       .  S
C1501      H1508   1.080       .  S
C1501      C1502   1.408       .  A
C1501      C1506   1.404       .  A
C1502      C1503   1.423       .  A
C1503      C1504   1.407       .  A
C1503      C1510   1.506       .  S
C1504      H1509   1.084       .  S
C1504      C1505   1.397       .  A
C1505      C1506   1.412       .  A
C1506      C1507   1.508       .  S
C1507      H1511   1.111       .  S
C1507      H1512   1.107       .  S
C1507      H1513   1.110       .  S
C1510      H1515   1.107       .  S
C1510      H1516   1.111       .  S
C1517      H1524   1.085       .  S
C1517      C1518   1.409       .  A
C1517      C1522   1.398       .  A
C1518      C1519   1.406       .  A
C1519      C1520   1.405       .  A
C1519      C1526   1.505       .  S
C1520      H1525   1.080       .  S
C1520      C1521   1.410       .  A
C1521      C1522   1.411       .  A
C1522      C1523   1.507       .  S
C1523      H1527   1.110       .  S
C1523      H1528   1.110       .  S
C1523      H1529   1.103       .  S
C1526      H1530   1.109       .  S
C1526      H1531   1.111       .  S
C1526      H1532   1.111       .  S
C1533      H1540   1.081       .  S
C1533      C1534   1.409       .  A
C1533      C1538   1.403       .  A
C1534      C1535   1.412       .  A
C1535      C1536   1.399       .  A
C1535      C1542   1.507       .  S
C1536      H1541   1.085       .  S
C1536      C1537   1.408       .  A
C1537      C1538   1.406       .  A
C1538      C1539   1.505       .  S
C1539      H1543   1.111       .  S
C1539      H1544   1.109       .  S
C1539      H1545   1.111       .  S
C1542      H1546   1.110       .  S
C1542      H1547   1.104       .  S
C1542      H1548   1.111       .  S
C1549      H1556   1.083       .  S
C1549      C1550   1.402       .  A
C1549      C1554   1.400       .  A
C1550      C1551   1.420       .  A
C1551      C1552   1.404       .  A
C1551      C1558   1.504       .  S
C1552      H1557   1.084       .  S
C1552      C1553   1.395       .  A
C1553      C1554   1.417       .  A
C1554      C1555   1.508       .  S
C1555      H1559   1.111       .  S
C1555      H1560   1.109       .  S
C1555      H1561   1.109       .  S
C1558      H1562   1.107   1_655  S
C1558      H1563   1.109   1_655  S
C1558      H1564   1.111       .  S
C1565      H1572   1.083       .  S
C1565      C1566   1.411       .  A
C1565      C1570   1.402       .  A
C1566      C1567   1.416       .  A
C1567      C1568   1.400       .  A
C1567      C1574   1.507       .  S
C1568      H1573   1.085       .  S
C1568      C1569   1.405       .  A
C1569      C1570   1.403       .  A
C1570      C1571   1.506       .  S
C1571      H1575   1.110       .  S
C1571      H1576   1.110       .  S
C1571      H1577   1.111       .  S
C1574      H1578   1.110       .  S
C1574      H1579   1.103       .  S
C1574      H1580   1.111       .  S
