geometry optimzed in LAMMPS
_audit_creation_date              2020-11-30 
_audit_creation_method            'lammps2cif' 
_symmetry_space_group_name_H-M    'P1' 
_symmetry_Int_Tables_number       1 
_symmetry_cell_setting            triclinic 
loop_ 
_symmetry_equiv_pos_as_xyz 
  x,y,z 
_cell_length_a                    44.90353574 
_cell_length_b                    44.97918401540209 
_cell_length_c                    47.90349466540254 
_cell_angle_alpha                 90.95146251695657 
_cell_angle_beta                  88.81943064897558 
_cell_angle_gamma                 120.30993573696479 
loop_ 
_atom_site_label 
_atom_site_type_symbol 
_atom_site_fract_x 
_atom_site_fract_y 
_atom_site_fract_z 
_atom_site_charge 
C1          C  0.05892119  0.06461003  0.33611110     0.80600
N2          N  0.06464135  0.07589763  0.30930519    -0.77700
C3          C  0.04287207  0.08413494  0.29698670     0.83000
N4          N  0.01495501  0.08048439  0.31153543    -0.77600
C5          C  0.00856151  0.06900660  0.33825080     0.83100
N6          N  0.03113089  0.06170976  0.35083944    -0.79400
C7          C  0.00607379  0.38062394  0.33944110     0.80600
N8          N  0.03028405  0.40895891  0.35370630    -0.77700
C9          C  0.05930999  0.43316503  0.34005690     0.83000
N10         N  0.06396952  0.42834252  0.31264320    -0.77600
C11         C  0.04017006  0.40036577  0.29838666     0.83100
N12         N  0.01129818  0.37658746  0.31188345    -0.79400
C13         C  0.45723753  0.47849930  0.49490289     0.80600
N14         N  0.44058952  0.44376798  0.49501050    -0.77700
C15         C  0.45845700  0.42702426  0.49396855     0.83000
N16         N  0.49329731  0.44530153  0.49251132    -0.77600
C17         C  0.01026100  0.48010359  0.49280226     0.83100
N18         N  0.49207665  0.49654579  0.49362724    -0.79400
O19         O  0.35066339  0.01419073  0.34126785    -0.85000
O20         O  0.40026357  0.08211652  0.34649662    -0.82000
C21         C  0.42430071  0.10951635  0.35666635     0.98500
O22         O  0.44675182  0.10897608  0.37178381    -0.82000
O23         O  0.40908552  0.08398867  0.42164232    -0.84700
C24         C  0.38584577  0.06187881  0.43761517     1.03000
O25         O  0.37169092  0.02999410  0.43238694    -0.77500
O26         O  0.33454840  0.00902785  0.38514636    -0.77600
C27         C  0.32864553  0.01020796  0.35984716     1.03000
O28         O  0.40387241  0.99642892  0.33877581    -0.85000
O29         O  0.45385976  0.06482382  0.33796902    -0.82000
C30         C  0.47705714  0.06486737  0.35263979     0.98500
O31         O  0.47335595  0.06240358  0.37887700    -0.82100
O32         O  0.43971978  0.04497504  0.43090810    -0.84700
C33         C  0.42529030  0.01316333  0.43496758     1.03000
O34         O  0.40392285  0.49175963  0.41801110    -0.77500
O35         O  0.36470591  0.46620374  0.37085384    -0.77600
C36         C  0.38305070  0.46791488  0.34979752     1.02900
Cr37       Cr  0.40237117  0.03928485  0.34415106     1.93700
Cr38       Cr  0.43957590  0.07225955  0.39895834     1.93200
Cr39       Cr  0.37126880  0.00200153  0.39977331     1.39100
O40         O  0.40423700  0.03766037  0.38112252    -1.22700
O41         O  0.39746995  0.25862928  0.34613704    -0.85000
O42         O  0.34850183  0.27732767  0.34080789    -0.82000
C43         C  0.32595671  0.26121453  0.35942193     0.98500
O44         O  0.33191172  0.26936876  0.38471487    -0.82000
O45         O  0.36942696  0.28539120  0.43199204    -0.84700
C46         C  0.38264068  0.26681377  0.43649187     1.03000
O47         O  0.40526401  0.26706174  0.42009402    -0.77500
O48         O  0.44420096  0.27955692  0.37093916    -0.77600
C49         C  0.42166769  0.25583367  0.35598835     1.03000
O50         O  0.45151610  0.32989110  0.33806274    -0.85000
O51         O  0.40182186  0.34804643  0.33769688    -0.82000
C52         C  0.38192955  0.35700325  0.34898067     0.98500
O53         O  0.36442820  0.34218192  0.37075206    -0.82100
O54         O  0.40370358  0.35635677  0.41786793    -0.84700
C55         C  0.42453897  0.35613874  0.43488498     1.03000
O56         O  0.43716838  0.33708747  0.43114142    -0.77500
O57         O  0.47069426  0.35250409  0.37937528    -0.77600
C58         C  0.47449007  0.35338092  0.35316539     1.02900
Cr59       Cr  0.40004174  0.30383021  0.34370635     1.93700
Cr60       Cr  0.36983672  0.31300009  0.39954908     1.93200
Cr61       Cr  0.43665921  0.30918798  0.39857186     1.39100
O62         O  0.40192273  0.30870928  0.38069143    -1.22700
O63         O  0.16452307  0.09054673  0.34041821    -0.85000
O64         O  0.18187665  0.04042897  0.34592784    -0.82000
C65         C  0.18422557  0.01609258  0.35612949     0.98500
O66         O  0.16044209  0.99425085  0.37165594    -0.82000
O67         O  0.17353410  0.03392765  0.42015161    -0.84700
C68         C  0.17476250  0.05739386  0.43593420     1.03000
O69         O  0.15594812  0.07034881  0.43172342    -0.77500
O70         O  0.17272650  0.10728184  0.38419999    -0.77600
C71         C  0.18073891  0.11314457  0.35883413     1.03000
O72         O  0.09303121  0.03838986  0.33803159    -0.85000
O73         O  0.11008369  0.98764009  0.33864525    -0.82000
C74         C  0.08654426  0.46466763  0.35391059     0.98500
O75         O  0.08739891  0.46853738  0.38013245    -0.82100
O76         O  0.10300579  0.50289809  0.43161438    -0.84700
C77         C  0.08407036  0.01579866  0.43490872     1.03000
O78         O  0.08485244  0.03708094  0.41782299    -0.77500
O79         O  0.10026803  0.07632194  0.37077646    -0.77600
C80         C  0.08483819  0.05884257  0.34937931     1.02900
Cr81       Cr  0.13700576  0.03905174  0.34378571     1.93700
Cr82       Cr  0.13102164  0.00262803  0.39909274     1.93200
Cr83       Cr  0.12869854  0.07012141  0.39937522     1.39100
O84         O  0.13218731  0.03747590  0.38079608    -1.22700
C85         C  0.37761983  0.38364111  0.33522947     0.80600
N86         N  0.38159975  0.41194673  0.34951713    -0.77700
C87         C  0.37797763  0.43633099  0.33591192     0.83000
N88         N  0.36893198  0.43147904  0.30872592    -0.77600
C89         C  0.36399807  0.40304496  0.29459588     0.83100
N90         N  0.36874688  0.37932682  0.30783161    -0.79400
C91         C  0.22808054  0.40022709  0.16807099     0.80600
N92         N  0.23289724  0.40937468  0.14069860    -0.77700
C93         C  0.20958099  0.41458373  0.12735526     0.83000
N94         N  0.18096371  0.40980139  0.14136544    -0.77600
C95         C  0.17561011  0.40049573  0.16856043     0.83100
N96         N  0.19966344  0.39643744  0.18225953    -0.79400
C97         C  0.04617160  0.21932057  0.17000705     0.80600
N98         N  0.53527890  0.21406756  0.14313057    -0.77700
C99         C  0.52755859  0.23623542  0.13079065     0.83000
N100        N  0.53130781  0.26400585  0.14537083    -0.77600
C101        C  0.04241609  0.26994893  0.17211093     0.83100
N102        N  0.04922613  0.24705315  0.18473666    -0.79400
C103        C  0.13297761  0.32087755  0.32819416     0.80600
N104        N  0.11424412  0.28611507  0.32725323    -0.77700
C105        C  0.13004122  0.26731495  0.32648387     0.83000
N106        N  0.16488522  0.28357937  0.32594287    -0.77600
C107        C  0.18384727  0.31833822  0.32712671     0.83100
N108        N  0.16773862  0.33681875  0.32809458    -0.79400
O109        O  0.02906322  0.37759620  0.17997178    -0.85000
O110        O  0.09680637  0.42769776  0.17437850    -0.82000
C111        C  0.10076744  0.44954119  0.19300982     0.98500
O112        O  0.10240844  0.44361617  0.21824674    -0.82000
O113        O  0.08192733  0.40647417  0.26572337    -0.84700
C114        C  0.04997728  0.39232295  0.27109071     1.03000
O115        O  0.02786298  0.36934063  0.25512488    -0.77500
O116        O  0.00247777  0.33129935  0.20569295    -0.77600
C117        C  0.50170930  0.35331997  0.19016335     1.03000
O118        O  0.04700485  0.32464503  0.17158309    -0.85000
O119        O  0.11533811  0.37491630  0.17156559    -0.82000
C120        C  0.14390149  0.39561817  0.18243278     0.98500
O121        O  0.14558032  0.41383118  0.20347843    -0.82100
O122        O  0.12025038  0.37444034  0.25080022    -0.84700
C123        C  0.09894052  0.35319647  0.26803801     1.03000
O124        O  0.06703947  0.33883050  0.26432528    -0.77500
O125        O  0.04924659  0.30506612  0.21259556    -0.77600
C126        C  0.04678084  0.30142034  0.18638312     1.02900
Cr127      Cr  0.07220604  0.37602026  0.17741272     1.93700
Cr128      Cr  0.10977388  0.40703931  0.23273000     1.93200
Cr129      Cr  0.03948396  0.33881104  0.23257530     1.39100
O130        O  0.07400808  0.37410113  0.21437499    -1.22700
O131        O  0.07028586  0.09645770  0.18024943    -0.85000
O132        O  0.02022267  0.11401697  0.17454474    -0.82000
C133        C  0.49751865  0.09733134  0.19290515     0.98500
O134        O  0.00311442  0.10497743  0.21830227    -0.82000
O135        O  0.03951485  0.12201762  0.26613178    -0.84700
C136        C  0.05293741  0.10373707  0.27081136     1.03000
O137        O  0.07660569  0.10506414  0.25504933    -0.77500
O138        O  0.11617558  0.11754476  0.20620996    -0.77600
C139        C  0.09449076  0.09395626  0.19058434     1.03000
O140        O  0.12313000  0.16791900  0.17262241    -0.85000
O141        O  0.07249331  0.18528122  0.17211336    -0.82000
C142        C  0.05170176  0.19320741  0.18329243     0.98500
O143        O  0.03381630  0.17745377  0.20459006    -0.82100
O144        O  0.07246369  0.19284297  0.25188184    -0.84700
C145        C  0.09397764  0.19394483  0.26884911     1.03000
O146        O  0.10747416  0.17555505  0.26547058    -0.77500
O147        O  0.14205756  0.19076157  0.21388684    -0.77600
C148        C  0.14603189  0.19151463  0.18766162     1.02900
Cr149      Cr  0.07170226  0.14128870  0.17796012     1.93700
Cr150      Cr  0.03989188  0.14907031  0.23345146     1.93200
Cr151      Cr  0.10786372  0.14729933  0.23332832     1.39100
O152        O  0.07296460  0.14593478  0.21499461    -1.22700
O153        O  0.33477690  0.42885990  0.17318698    -0.85000
O154        O  0.35280404  0.37952578  0.17838447    -0.82000
C155        C  0.35517428  0.35498632  0.18797503     0.98500
O156        O  0.33125497  0.33251889  0.20296725    -0.82000
O157        O  0.34466306  0.37158839  0.25189837    -0.84700
C158        C  0.34532218  0.39437429  0.26819597     1.03000
O159        O  0.32657018  0.40751703  0.26410914    -0.77500
O160        O  0.34175006  0.44532364  0.21704406    -0.77600
C161        C  0.35034305  0.45136090  0.19178223     1.03000
O162        O  0.26378772  0.37620827  0.17026601    -0.85000
O163        O  0.28115189  0.32606904  0.17070671    -0.82000
C164        C  0.25760317  0.30314592  0.18599577     0.98500
O165        O  0.25855339  0.30681301  0.21221046    -0.82100
O166        O  0.27472264  0.33990967  0.26404952    -0.84700
C167        C  0.25547417  0.35228121  0.26799711     1.03000
O168        O  0.25511016  0.37311271  0.25102869    -0.77500
O169        O  0.26875349  0.41242370  0.20388444    -0.77600
C170        C  0.25444959  0.39559162  0.18186348     1.02900
Cr171      Cr  0.30776256  0.37743436  0.17618684     1.93700
Cr172      Cr  0.30216475  0.34043127  0.23098063     1.93200
Cr173      Cr  0.29835384  0.40711541  0.23222792     1.39100
O174        O  0.30273308  0.37529918  0.21319391    -1.22700
C175        C  0.17755415  0.21865967  0.17353438     0.80600
N176        N  0.18237128  0.21392150  0.14612567    -0.77700
C177        C  0.21044238  0.23759156  0.13166800     0.83000
N178        N  0.23430416  0.26640997  0.14494971    -0.77600
C179        C  0.23024688  0.27170479  0.17248233     0.83100
N180        N  0.20183015  0.24763026  0.18695141    -0.79400
C181        C  0.39583289  0.10438192  0.00628393     0.80600
N182        N  0.36720458  0.07969602  0.02013690    -0.77700
C183        C  0.34341235  0.05105345  0.00605237     0.83000
N184        N  0.34884885  0.04725983  0.47863884    -0.77600
C185        C  0.37717558  0.07139830  0.46477309     0.83100
N186        N  0.40064046  0.09989790  0.47868723    -0.76700
C187        C  0.39319543  0.23358889  0.00333147     0.80600
N188        N  0.36538403  0.23042980  0.01821470    -0.77700
C189        C  0.34154364  0.23562711  0.00531583     0.83000
N190        N  0.34653637  0.24513462  0.47813039    -0.77600
C191        C  0.37419918  0.24876149  0.46332601     0.83100
N192        N  0.39739238  0.24273325  0.47596227    -0.79400
C193        C  0.28976737  0.14455570  0.16110609     0.80600
N194        N  0.32455018  0.16406550  0.16010673    -0.77700
C195        C  0.34418117  0.14914945  0.15945136     0.83000
N196        N  0.32874325  0.11442742  0.15903759    -0.77600
C197        C  0.29398048  0.09470359  0.16020459     0.83100
N198        N  0.27465267  0.10991998  0.16106412    -0.79400
O199        O  0.99962435  0.26150013  0.00818516    -0.85000
O200        O  0.01754401  0.21168771  0.01388010    -0.82000
C201        C  0.01962550  0.18710247  0.02389924     0.98500
O202        O  0.99583718  0.16526290  0.03946273    -0.82000
O203        O  0.50747861  0.20363845  0.08854775    -0.84700
C204        C  0.50852900  0.22693807  0.10443841     1.03000
O205        O  0.49046879  0.24062676  0.09967449    -0.77500
O206        O  0.00822885  0.27783254  0.05200232    -0.77600
C207        C  0.01617766  0.28386091  0.02663879     1.03000
O208        O  0.42847175  0.20875843  0.50543778    -0.85000
O209        O  0.44648821  0.15882975  0.50564770    -0.82000
C210        C  0.42257192  0.13574195  0.02047163     0.98500
O211        O  0.42260173  0.13936334  0.04669313    -0.82100
O212        O  0.43672260  0.17281495  0.09859277    -0.84700
C213        C  0.41832373  0.18632599  0.10197117     1.03000
O214        O  0.41970675  0.20803714  0.08505142    -0.77500
O215        O  0.43555119  0.24701441  0.03784048    -0.77600
C216        C  0.41997135  0.22904949  0.01660900     1.02900
Cr217      Cr  0.47264029  0.21003428  0.01136322     1.93700
Cr218      Cr  0.46561568  0.17298969  0.06653917     1.93200
Cr219      Cr  0.46381023  0.24081651  0.06687437     1.39100
O220        O  0.46733622  0.20814535  0.04836224    -1.22700
O221        O  0.23532070  0.42803629  0.01115461    -0.85000
O222        O  0.18596991  0.44614603  0.00624750    -0.82000
C223        C  0.16330911  0.43005622  0.02481014     0.98500
O224        O  0.16917698  0.43802774  0.05012802    -0.82000
O225        O  0.20632408  0.45291196  0.09720581    -0.84700
C226        C  0.21906621  0.43382827  0.10112596     1.03000
O227        O  0.24209536  0.43464852  0.08486895    -0.77500
O228        O  0.28191521  0.44869910  0.03600162    -0.77600
C229        C  0.25935637  0.42501918  0.02105538     1.03000
O230        O  0.28912875  0.49994651  0.50408412    -0.85000
O231        O  0.23869047  0.51721605  0.50378659    -0.82000
C232        C  0.21856023  0.02571047  0.01532894     0.98500
O233        O  0.20151174  0.51080756  0.03720432    -0.82100
O234        O  0.24088724  0.02427590  0.08422060    -0.84700
C235        C  0.26160284  0.02371226  0.10118126     1.03000
O236        O  0.27394442  0.00444054  0.09727414    -0.77500
O237        O  0.30804256  0.52143954  0.04575462    -0.77600
C238        C  0.31192871  0.02317332  0.01954157     1.02900
Cr239      Cr  0.23753625  0.47315981  0.00932131     1.93700
Cr240      Cr  0.20703048  0.48127739  0.06540477     1.93200
Cr241      Cr  0.27382236  0.47746552  0.06416323     1.39100
O242        O  0.23920803  0.47737172  0.04634612    -1.22700
O243        O  0.18393564  0.18158959  0.00746186    -0.85000
O244        O  0.23396318  0.24937889  0.01320475    -0.82000
C245        C  0.25808948  0.27658006  0.02358767     0.98500
O246        O  0.28007660  0.27558081  0.03900049    -0.82000
O247        O  0.24168835  0.24988521  0.08837457    -0.84700
C248        C  0.21846511  0.22779781  0.10435341     1.03000
O249        O  0.20406811  0.19592665  0.09895764    -0.77500
O250        O  0.16754939  0.17631002  0.05128382    -0.77600
C251        C  0.16194155  0.17785218  0.02597714     1.03000
O252        O  0.23671576  0.16313799  0.50492404    -0.85000
O253        O  0.28701624  0.23146380  0.50493087    -0.82000
C254        C  0.31006502  0.23135228  0.01968867     0.98500
O255        O  0.30617646  0.22859199  0.04588180    -0.82100
O256        O  0.27173818  0.21022163  0.09748041    -0.84700
C257        C  0.25701224  0.17830671  0.10118758     1.03000
O258        O  0.23574722  0.15729904  0.08397747    -0.77500
O259        O  0.19692949  0.13285969  0.03656063    -0.77600
C260        C  0.21560266  0.13456220  0.01573132     1.02900
Cr261      Cr  0.23556893  0.20623244  0.01063799     1.93700
Cr262      Cr  0.27227287  0.23827751  0.06582728     1.93200
Cr263      Cr  0.20363800  0.16836147  0.06588427     1.39100
O264        O  0.23702830  0.20410171  0.04759672    -1.22700
C265        C  0.21074204  0.10284927  0.00207810     0.80600
N266        N  0.21665369  0.07984464  0.01553731    -0.77700
C267        C  0.21283888  0.05139794  0.00158092     0.83000
N268        N  0.20179607  0.04544566  0.47475469    -0.77600
C269        C  0.19477675  0.06769132  0.46169959     0.83100
N270        N  0.19957701  0.09638298  0.47541293    -0.79400
C271        C  0.26056406  0.30911496  0.01808092    -0.18100
C272        C  0.26153135  0.33624437  0.01536548     0.05900
C273        C  0.26159759  0.36772526  0.01447904     0.07800
C274        C  0.26091982  0.39421310  0.01598554    -0.19000
C275        C  0.04921573  0.18354521  0.01781776    -0.18100
C276        C  0.07426036  0.18028951  0.01534042     0.05900
C277        C  0.10413500  0.17721835  0.01550621     0.07800
C278        C  0.13024972  0.17618597  0.01850594    -0.19000
C279        C  0.04497438  0.31672955  0.01889113    -0.18100
C280        C  0.07081595  0.34423199  0.01531565     0.05900
C281        C  0.10248989  0.37575082  0.01466587     0.07800
C282        C  0.13022363  0.40152375  0.01736350    -0.19000
C283        C  0.27190225  0.15784203  0.14676510    -0.12900
C284        C  0.26313943  0.16656032  0.12655546    -0.14500
C285        C  0.27018468  0.04357876  0.12619414    -0.12900
C286        C  0.27938667  0.06277281  0.14585871    -0.14500
C287        C  0.37643653  0.16736562  0.14528403    -0.12900
C288        C  0.39683015  0.17764317  0.12625313    -0.14500
C289        C  0.46467606  0.06876076  0.18503441    -0.18100
C290        C  0.43698948  0.04316994  0.18161472     0.05900
C291        C  0.40513867  0.51185550  0.18136928     0.07800
C292        C  0.37910695  0.48438161  0.18437322    -0.19000
C293        C  0.38539786  0.35256156  0.18237174    -0.18100
C294        C  0.41136841  0.35095482  0.18052633     0.05900
C295        C  0.44236728  0.35014835  0.18136088     0.07800
C296        C  0.46928000  0.35077306  0.18430500    -0.19000
C297        C  0.10269644  0.48151528  0.18578097    -0.18100
C298        C  0.10220882  0.50797386  0.18293531     0.05900
C299        C  0.10007485  0.03843799  0.18270690     0.07800
C300        C  0.09759440  0.06397478  0.18492183    -0.19000
C301        C  0.10247508  0.21509484  0.29318938    -0.12900
C302        C  0.11252466  0.23521537  0.31227331    -0.14500
C303        C  0.23533767  0.34349712  0.29302035    -0.12900
C304        C  0.21595187  0.33382941  0.31270212    -0.14500
C305        C  0.11901973  0.33804972  0.31372977    -0.12900
C306        C  0.11031687  0.34673013  0.29345399    -0.14500
C307        C  0.29304909  0.23240399  0.35194932    -0.18100
C308        C  0.26576530  0.20628353  0.34858693     0.05900
C309        C  0.23467067  0.17420297  0.34820110     0.07800
C310        C  0.20921482  0.14624247  0.35113790    -0.19000
C311        C  0.42602363  0.14170392  0.35136764    -0.18100
C312        C  0.42613519  0.16843151  0.34901115     0.05900
C313        C  0.42512946  0.19933924  0.34867303     0.07800
C314        C  0.42368743  0.22537007  0.35061910    -0.19000
C315        C  0.29655280  0.00780236  0.35242595    -0.18100
C316        C  0.27007907  0.00814373  0.34922202     0.05900
C317        C  0.23970835  0.01038748  0.34855686     0.07800
C318        C  0.21423021  0.01301565  0.35051155    -0.19000
C319        C  0.44239530  0.39509021  0.47960339    -0.12900
C320        C  0.43285875  0.37602941  0.45986239    -0.14500
C321        C  0.04243277  0.49699509  0.47838391    -0.12900
C322        C  0.06270591  0.00696441  0.45926880    -0.14500
C323        C  0.44052257  0.49305727  0.48060795    -0.12900
C324        C  0.43191376  0.00195853  0.46041022    -0.14500
C325        C  0.05891939  0.06461081  0.83611238     0.80600
N326        N  0.06463951  0.07589848  0.80930654    -0.77700
C327        C  0.04286999  0.08413527  0.79698794     0.83000
N328        N  0.01495261  0.08048427  0.81153654    -0.77600
C329        C  0.00855907  0.06900629  0.83825189     0.83100
N330        N  0.03112875  0.06170992  0.85084061    -0.79400
C331        C  0.00607391  0.38062352  0.83944069     0.80600
N332        N  0.03028352  0.40895883  0.85370596    -0.77700
C333        C  0.05930975  0.43316496  0.84005679     0.83000
N334        N  0.06397010  0.42834200  0.81264335    -0.77600
C335        C  0.04017112  0.40036475  0.79838685     0.83100
N336        N  0.01129909  0.37658661  0.81188342    -0.79400
C337        C  0.45723422  0.47849855  0.99490198     0.80600
N338        N  0.44058757  0.44376727  0.99500857    -0.77700
C339        C  0.45845637  0.42702495  0.99396645     0.83000
N340        N  0.49329663  0.44530350  0.99251005    -0.77600
C341        C  0.01026009  0.48009974  0.99280357     0.83100
N342        N  0.49207338  0.49654644  0.99362713    -0.79400
O343        O  0.35066065  0.01418896  0.84126788    -0.85000
O344        O  0.40026022  0.08211453  0.84649632    -0.82000
C345        C  0.42429764  0.10951457  0.85666533     0.98500
O346        O  0.44674976  0.10897469  0.87178168    -0.82000
O347        O  0.40908432  0.08398568  0.92164011    -0.84700
C348        C  0.38584663  0.06187532  0.93761387     1.03000
O349        O  0.37169350  0.02999046  0.93238618    -0.77500
O350        O  0.33454727  0.00902144  0.88514717    -0.77600
C351        C  0.32864297  0.01020326  0.85984853     1.03000
O352        O  0.40387162  0.99642887  0.83877160    -0.85000
O353        O  0.45385819  0.06482321  0.83796642    -0.82000
C354        C  0.47705587  0.06486691  0.85263722     0.98500
O355        O  0.47335494  0.06240305  0.87887427    -0.82100
O356        O  0.43972121  0.04497426  0.93090538    -0.84700
C357        C  0.42529451  0.01316250  0.93496353     1.03000
O358        O  0.40391625  0.49175694  0.91801129    -0.77500
O359        O  0.36470132  0.46620240  0.87085260    -0.77600
C360        C  0.38304804  0.46791338  0.84979765     1.02900
Cr361      Cr  0.40236914  0.03928370  0.84414911     1.93700
Cr362      Cr  0.43957519  0.07225817  0.89895585     1.93200
Cr363      Cr  0.37127093  0.00199833  0.89977151     1.39100
O364        O  0.40423654  0.03765845  0.88112031    -1.22700
O365        O  0.39746797  0.25862871  0.84613532    -0.85000
O366        O  0.34850109  0.27732913  0.84080671    -0.82000
C367        C  0.32595636  0.26121426  0.85942062     0.98500
O368        O  0.33191172  0.26936695  0.88471377    -0.82000
O369        O  0.36942657  0.28539035  0.93199119    -0.84700
C370        C  0.38263988  0.26681255  0.93649088     1.03000
O371        O  0.40526284  0.26706017  0.92009284    -0.77500
O372        O  0.44419881  0.27955486  0.87093769    -0.77600
C373        C  0.42166512  0.25583211  0.85598671     1.03000
O374        O  0.45151553  0.32989000  0.83806187    -0.85000
O375        O  0.40182316  0.34804761  0.83769714    -0.82000
C376        C  0.38192957  0.35700311  0.84898039     0.98500
O377        O  0.36442682  0.34218006  0.87075080    -0.82100
O378        O  0.40370283  0.35635569  0.91786661    -0.84700
C379        C  0.42453866  0.35613805  0.93488347     1.03000
O380        O  0.43716765  0.33708632  0.93114022    -0.77500
O381        O  0.47069350  0.35250248  0.87937450    -0.77600
C382        C  0.47448931  0.35337981  0.85316467     1.02900
Cr383      Cr  0.40004122  0.30383034  0.84370529     1.93700
Cr384      Cr  0.36983596  0.31299874  0.89954801     1.93200
Cr385      Cr  0.43665814  0.30918638  0.89857074     1.39100
O386        O  0.40192204  0.30870835  0.88069038    -1.22700
O387        O  0.16452280  0.09054701  0.84042017    -0.85000
O388        O  0.18187472  0.04042785  0.84593112    -0.82000
C389        C  0.18422207  0.01609052  0.85613290     0.98500
O390        O  0.16043693  0.99424873  0.87165811    -0.82000
O391        O  0.17352940  0.03392581  0.92015348    -0.84700
C392        C  0.17475912  0.05739302  0.93593562     1.03000
O393        O  0.15594564  0.07034899  0.93172478    -0.77500
O394        O  0.17272411  0.10728273  0.88420180    -0.77600
C395        C  0.18073770  0.11314506  0.85883610     1.03000
O396        O  0.09303075  0.03839205  0.83803217    -0.85000
O397        O  0.11008146  0.98764092  0.83864664    -0.82000
C398        C  0.08654350  0.46466772  0.85391084     0.98500
O399        O  0.08739839  0.46853659  0.88013279    -0.82100
O400        O  0.10300567  0.50289569  0.93161560    -0.84700
C401        C  0.08406752  0.01580021  0.93491074     1.03000
O402        O  0.08484978  0.03708227  0.91782473    -0.77500
O403        O  0.10026551  0.07632244  0.87077814    -0.77600
C404        C  0.08483666  0.05884374  0.84938046     1.02900
Cr405      Cr  0.13700440  0.03905228  0.84378753     1.93700
Cr406      Cr  0.13101692  0.00262732  0.89909435     1.93200
Cr407      Cr  0.12869602  0.07012208  0.89937684     1.39100
O408        O  0.13218443  0.03747618  0.88079777    -1.22700
C409        C  0.37761953  0.38364079  0.83522936     0.80600
N410        N  0.38159799  0.41194565  0.84951732    -0.77700
C411        C  0.37797544  0.43632967  0.83591215     0.83000
N412        N  0.36893096  0.43147823  0.80872588    -0.77600
C413        C  0.36399845  0.40304484  0.79459554     0.83100
N414        N  0.36874765  0.37932696  0.80783125    -0.79400
C415        C  0.22808109  0.40022610  0.66806969     0.80600
N416        N  0.23289748  0.40937382  0.64069729    -0.77700
C417        C  0.20958072  0.41458249  0.62735416     0.83000
N418        N  0.18096350  0.40979973  0.64136459    -0.77600
C419        C  0.17561010  0.40049391  0.66855960     0.83100
N420        N  0.19966388  0.39643591  0.68225841    -0.79400
C421        C  0.04617399  0.21932031  0.67000717     0.80600
N422        N  0.53528120  0.21406899  0.64313106    -0.77700
C423        C  0.52756071  0.23623681  0.63079132     0.83000
N424        N  0.53130952  0.26400686  0.64537176    -0.77600
C425        C  0.04241776  0.26994814  0.67211115     0.83100
N426        N  0.04922812  0.24705265  0.68473686    -0.79400
C427        C  0.13297978  0.32087949  0.82819546     0.80600
N428        N  0.11424586  0.28611708  0.82725394    -0.77700
C429        C  0.13004244  0.26731651  0.82648337     0.83000
N430        N  0.16488642  0.28358047  0.82594216    -0.77600
C431        C  0.18384895  0.31833925  0.82712706     0.83100
N432        N  0.16774078  0.33682025  0.82809589    -0.79400
O433        O  0.02906376  0.37759510  0.67997348    -0.85000
O434        O  0.09680685  0.42769601  0.67437896    -0.82000
C435        C  0.10076613  0.44953879  0.69301035     0.98500
O436        O  0.10240729  0.44361373  0.71824723    -0.82000
O437        O  0.08192843  0.40647231  0.76572393    -0.84700
C438        C  0.04997846  0.39232131  0.77109127     1.03000
O439        O  0.02786407  0.36933867  0.75512568    -0.77500
O440        O  0.00247839  0.33129772  0.70569406    -0.77600
C441        C  0.50170841  0.35331731  0.69016374     1.03000
O442        O  0.04700427  0.32464320  0.67158377    -0.85000
O443        O  0.11533791  0.37491373  0.67156558    -0.82000
C444        C  0.14390148  0.39561615  0.68243229     0.98500
O445        O  0.14558031  0.41382973  0.70347763    -0.82100
O446        O  0.12025163  0.37443898  0.75079981    -0.84700
C447        C  0.09894222  0.35319547  0.76803804     1.03000
O448        O  0.06704105  0.33882889  0.76432557    -0.77500
O449        O  0.04924774  0.30506469  0.71259589    -0.77600
C450        C  0.04678154  0.30141897  0.68638348     1.02900
Cr451      Cr  0.07220615  0.37601839  0.67741328     1.93700
Cr452      Cr  0.10977434  0.40703761  0.73273003     1.93200
Cr453      Cr  0.03948490  0.33880918  0.73257593     1.39100
O454        O  0.07400862  0.37409921  0.71437543    -1.22700
O455        O  0.07028518  0.09645621  0.68025035    -0.85000
O456        O  0.02022234  0.11401611  0.67454440    -0.82000
C457        C  0.49751750  0.09733207  0.69290682     0.98500
O458        O  0.00311309  0.10497619  0.71830168    -0.82000
O459        O  0.03951237  0.12201699  0.76613212    -0.84700
C460        C  0.05293524  0.10373695  0.77081241     1.03000
O461        O  0.07660395  0.10506410  0.75505089    -0.77500
O462        O  0.11617413  0.11754327  0.70621197    -0.77600
C463        C  0.09449012  0.09395511  0.69058559     1.03000
O464        O  0.12312984  0.16791682  0.67262332    -0.85000
O465        O  0.07249432  0.18528014  0.67211372    -0.82000
C466        C  0.05170291  0.19320670  0.68329247     0.98500
O467        O  0.03381587  0.17745241  0.70458922    -0.82100
O468        O  0.07246132  0.19284212  0.75188171    -0.84700
C469        C  0.09397591  0.19394509  0.76884884     1.03000
O470        O  0.10747254  0.17555535  0.76547085    -0.77500
O471        O  0.14205647  0.19076064  0.71388748    -0.77600
C472        C  0.14603138  0.19151311  0.68766236     1.02900
Cr473      Cr  0.07170200  0.14128725  0.67796056     1.93700
Cr474      Cr  0.03989024  0.14906919  0.73345118     1.93200
Cr475      Cr  0.10786226  0.14729872  0.73332942     1.39100
O476        O  0.07296342  0.14593359  0.71499506    -1.22700
O477        O  0.33477961  0.42885807  0.67318586    -0.85000
O478        O  0.35280456  0.37952248  0.67838471    -0.82000
C479        C  0.35517356  0.35498236  0.68797539     0.98500
O480        O  0.33125392  0.33251588  0.70296784    -0.82000
O481        O  0.34466381  0.37158788  0.75189807    -0.84700
C482        C  0.34532314  0.39437422  0.76819529     1.03000
O483        O  0.32657155  0.40751734  0.76410794    -0.77500
O484        O  0.34175024  0.44532347  0.71704257    -0.77600
C485        C  0.35034409  0.45135992  0.69178084     1.03000
O486        O  0.26378990  0.37620870  0.67026420    -0.85000
O487        O  0.28115158  0.32606743  0.67070687    -0.82000
C488        C  0.25760285  0.30314471  0.68599616     0.98500
O489        O  0.25855325  0.30681216  0.71221089    -0.82100
O490        O  0.27472382  0.33991013  0.76404985    -0.84700
C491        C  0.25547555  0.35228186  0.76799732     1.03000
O492        O  0.25511118  0.37311269  0.75102840    -0.77500
O493        O  0.26875352  0.41242228  0.70388359    -0.77600
C494        C  0.25445070  0.39559105  0.68186205     1.02900
Cr495      Cr  0.30776381  0.37743282  0.67618631     1.93700
Cr496      Cr  0.30216502  0.34043047  0.73098078     1.93200
Cr497      Cr  0.29835458  0.40711499  0.73222690     1.39100
O498        O  0.30273385  0.37529835  0.71319338    -1.22700
C499        C  0.17755359  0.21865816  0.67353493     0.80600
N500        N  0.18237063  0.21392012  0.64612616    -0.77700
C501        C  0.21044153  0.23759023  0.63166834     0.83000
N502        N  0.23430346  0.26640867  0.64495011    -0.77600
C503        C  0.23024630  0.27170342  0.67248278     0.83100
N504        N  0.20182970  0.24762890  0.68695194    -0.79400
C505        C  0.39583120  0.10438289  0.50628619     0.80600
N506        N  0.36720291  0.07969645  0.52013884    -0.77700
C507        C  0.34341067  0.05105451  0.50605364     0.83000
N508        N  0.34885056  0.04725739  0.97863789    -0.77600
C509        C  0.37717726  0.07139524  0.96477183     0.83100
N510        N  0.40064221  0.09989566  0.97868523    -0.76700
C511        C  0.39319593  0.23359023  0.50333280     0.80600
N512        N  0.36538413  0.23043072  0.51821569    -0.77700
C513        C  0.34154371  0.23562783  0.50531650     0.83000
N514        N  0.34653596  0.24513379  0.97812967    -0.77600
C515        C  0.37419843  0.24876023  0.96332497     0.83100
N516        N  0.39739153  0.24273168  0.97596094    -0.79400
C517        C  0.28976693  0.14455783  0.66110716     0.80600
N518        N  0.32454984  0.16406660  0.66010785    -0.77700
C519        C  0.34417972  0.14914935  0.65945111     0.83000
N520        N  0.32874057  0.11442719  0.65903562    -0.77600
C521        C  0.29397770  0.09470442  0.66020285     0.83100
N522        N  0.27465103  0.10992197  0.66106398    -0.79400
O523        O  0.99962392  0.26149709  0.50818846    -0.85000
O524        O  0.01754414  0.21168543  0.51388469    -0.82000
C525        C  0.01962491  0.18709940  0.52390292     0.98500
O526        O  0.99583571  0.16525898  0.53946518    -0.82000
O527        O  0.50747963  0.20363902  0.58854885    -0.84700
C528        C  0.50853087  0.22693925  0.60443919     1.03000
O529        O  0.49047093  0.24062827  0.59967527    -0.77500
O530        O  0.00822601  0.27782963  0.55200559    -0.77600
C531        C  0.01617582  0.28385809  0.52664225     1.03000
O532        O  0.42847234  0.20875846  0.00543610    -0.85000
O533        O  0.44648918  0.15883016  0.00564533    -0.82000
C534        C  0.42257079  0.13574213  0.52047420     0.98500
O535        O  0.42260115  0.13936362  0.54669572    -0.82100
O536        O  0.43672378  0.17281638  0.59859497    -0.84700
C537        C  0.41832517  0.18632773  0.60197334     1.03000
O538        O  0.41970855  0.20803914  0.58505366    -0.77500
O539        O  0.43555203  0.24701526  0.53784178    -0.77600
C540        C  0.41997158  0.22905019  0.51661046     1.02900
Cr541      Cr  0.47263958  0.21003367  0.51136463     1.93700
Cr542      Cr  0.46561586  0.17299005  0.56654103     1.93200
Cr543      Cr  0.46381166  0.24081753  0.56687551     1.39100
O544        O  0.46733637  0.20814552  0.54836373    -1.22700
O545        O  0.23531928  0.42803545  0.51115336    -0.85000
O546        O  0.18596724  0.44614333  0.50624764    -0.82000
C547        C  0.16330682  0.43005460  0.52481084     0.98500
O548        O  0.16917513  0.43802749  0.55012847    -0.82000
O549        O  0.20632373  0.45291133  0.59720523    -0.84700
C550        C  0.21906556  0.43382713  0.60112477     1.03000
O551        O  0.24209403  0.43464704  0.58486714    -0.77500
O552        O  0.28191435  0.44869900  0.53599947    -0.77600
C553        C  0.25935533  0.42501874  0.52105373     1.03000
O554        O  0.28913111  0.49994627  0.00408588    -0.85000
O555        O  0.23869464  0.51721821  0.00378826    -0.82000
C556        C  0.21855820  0.02570841  0.51532905     0.98500
O557        O  0.20151009  0.51080721  0.53720430    -0.82100
O558        O  0.24087991  0.02427209  0.58422003    -0.84700
C559        C  0.26159672  0.02371050  0.60118059     1.03000
O560        O  0.27393986  0.00443994  0.59727403    -0.77500
O561        O  0.30804074  0.52143841  0.54575323    -0.77600
C562        C  0.31192732  0.02317339  0.51954255     1.02900
Cr563      Cr  0.23753369  0.47315848  0.50932018     1.93700
Cr564      Cr  0.20702956  0.48127702  0.56540442     1.93200
Cr565      Cr  0.27382096  0.47746434  0.56416157     1.39100
O566        O  0.23920636  0.47737081  0.54634499    -1.22700
O567        O  0.18393503  0.18158853  0.50746240    -0.85000
O568        O  0.23396186  0.24937810  0.51320473    -0.82000
C569        C  0.25808817  0.27657950  0.52358733     0.98500
O570        O  0.28007552  0.27558051  0.53899994    -0.82000
O571        O  0.24168637  0.24988454  0.58837408    -0.84700
C572        C  0.21846414  0.22779685  0.60435344     1.03000
O573        O  0.20406831  0.19592559  0.59895798    -0.77500
O574        O  0.16754885  0.17630687  0.55128460    -0.77600
C575        C  0.16194080  0.17784957  0.52597807     1.03000
O576        O  0.23671614  0.16313841  0.00492464    -0.85000
O577        O  0.28701676  0.23146415  0.00493089    -0.82000
C578        C  0.31006469  0.23135256  0.51968895     0.98500
O579        O  0.30617607  0.22859270  0.54588208    -0.82100
O580        O  0.27173806  0.21022306  0.59748057    -0.84700
C581        C  0.25701357  0.17830833  0.60118779     1.03000
O582        O  0.23574981  0.15730003  0.58397730    -0.77500
O583        O  0.19693095  0.13285880  0.53656112    -0.77600
C584        C  0.21560326  0.13456166  0.51573108     1.02900
Cr585      Cr  0.23556825  0.20623185  0.51063793     1.93700
Cr586      Cr  0.27227197  0.23827775  0.56582708     1.93200
Cr587      Cr  0.20363884  0.16836045  0.56588460     1.39100
O588        O  0.23702794  0.20410121  0.54759665    -1.22700
C589        C  0.21074287  0.10284882  0.50207775     0.80600
N590        N  0.21665256  0.07984312  0.51553746    -0.77700
C591        C  0.21283748  0.05139630  0.50158113     0.83000
N592        N  0.20179559  0.04544631  0.97475498    -0.77600
C593        C  0.19477447  0.06769100  0.96170041     0.83100
N594        N  0.19957466  0.09638265  0.97541376    -0.79400
C595        C  0.26056271  0.30911436  0.51808040    -0.18100
C596        C  0.26153034  0.33624393  0.51536480     0.05900
C597        C  0.26159679  0.36772491  0.51447808     0.07800
C598        C  0.26091891  0.39421271  0.51598421    -0.19000
C599        C  0.04921496  0.18354202  0.51782159    -0.18100
C600        C  0.07425921  0.18028590  0.51534387     0.05900
C601        C  0.10413359  0.17721451  0.51550876     0.07800
C602        C  0.13024855  0.17618250  0.51850756    -0.19000
C603        C  0.04497224  0.31672703  0.51889493    -0.18100
C604        C  0.07081360  0.34422958  0.51531914     0.05900
C605        C  0.10248742  0.37574848  0.51466847     0.07800
C606        C  0.13022121  0.40152165  0.51736515    -0.19000
C607        C  0.27190290  0.15784544  0.64676648    -0.12900
C608        C  0.26314043  0.16656305  0.62655628    -0.14500
C609        C  0.27017894  0.04357865  0.62619265    -0.12900
C610        C  0.27938220  0.06277367  0.64585661    -0.14500
C611        C  0.37643587  0.16736577  0.64528487    -0.12900
C612        C  0.39683072  0.17764421  0.62625484    -0.14500
C613        C  0.46467423  0.06876139  0.68503683    -0.18100
C614        C  0.43698769  0.04317040  0.68161671     0.05900
C615        C  0.40513858  0.51185482  0.68136750     0.07800
C616        C  0.37910731  0.48438074  0.68437163    -0.19000
C617        C  0.38539601  0.35255568  0.68237203    -0.18100
C618        C  0.41136591  0.35094786  0.68052637     0.05900
C619        C  0.44236488  0.35014166  0.68136042     0.07800
C620        C  0.46927831  0.35076795  0.68430455    -0.19000
C621        C  0.10269292  0.48151204  0.68578172    -0.18100
C622        C  0.10220382  0.50796993  0.68293628     0.05900
C623        C  0.10007595  0.03843806  0.68270667     0.07800
C624        C  0.09759485  0.06397440  0.68492235    -0.19000
C625        C  0.10247442  0.21509664  0.79318826    -0.12900
C626        C  0.11252517  0.23521751  0.81227198    -0.14500
C627        C  0.23533944  0.34349839  0.79302079    -0.12900
C628        C  0.21595362  0.33383061  0.81270255    -0.14500
C629        C  0.11902242  0.33805191  0.81373080    -0.12900
C630        C  0.11031919  0.34673095  0.79345447    -0.14500
C631        C  0.29304887  0.23240372  0.85194775    -0.18100
C632        C  0.26576493  0.20628320  0.84858613     0.05900
C633        C  0.23467003  0.17420285  0.84820201     0.07800
C634        C  0.20921401  0.14624269  0.85113988    -0.19000
C635        C  0.42601978  0.14170180  0.85136678    -0.18100
C636        C  0.42613078  0.16842908  0.84901002     0.05900
C637        C  0.42512509  0.19933678  0.84867149     0.07800
C638        C  0.42368372  0.22536795  0.85061736    -0.19000
C639        C  0.29654880  0.00779675  0.85242968    -0.18100
C640        C  0.27007464  0.00813813  0.84922728     0.05900
C641        C  0.23970415  0.01038287  0.84856247     0.07800
C642        C  0.21422652  0.01301231  0.85051644    -0.19000
C643        C  0.44239608  0.39509107  0.97960101    -0.12900
C644        C  0.43285945  0.37602978  0.95986035    -0.14500
C645        C  0.04243234  0.49699060  0.97838582    -0.12900
C646        C  0.06270459  0.00696788  0.95927161    -0.14500
C647        C  0.44051809  0.49305562  0.98060755    -0.12900
C648        C  0.43191787  0.00195723  0.96040601    -0.14500
C649        C  0.05891978  0.56460891  0.33611212     0.80600
N650        N  0.06464031  0.57589795  0.30930674    -0.77700
C651        C  0.04287160  0.58413631  0.29698887     0.83000
N652        N  0.01495444  0.58048543  0.31153789    -0.77600
C653        C  0.00856046  0.56900609  0.33825288     0.83100
N654        N  0.03112950  0.56170827  0.35084088    -0.79400
C655        C  0.00607659  0.88062228  0.33944095     0.80600
N656        N  0.03028635  0.90895778  0.35370605    -0.77700
C657        C  0.05931215  0.93316416  0.34005653     0.83000
N658        N  0.06397202  0.92834141  0.31264299    -0.77600
C659        C  0.04017294  0.90036418  0.29838662     0.83100
N660        N  0.01130133  0.87658567  0.31188347    -0.79400
C661        C  0.45723922  0.97850348  0.49490313     0.80600
N662        N  0.44059198  0.94377218  0.49501091    -0.77700
C663        C  0.45846012  0.92702918  0.49396852     0.83000
N664        N  0.49330035  0.94530710  0.49251109    -0.77600
C665        C  0.01026059  0.98009868  0.49280186     0.83100
N666        N  0.49207836  0.99655073  0.49362642    -0.79400
O667        O  0.35066241  0.51418845  0.34126921    -0.85000
O668        O  0.40026150  0.58211512  0.34649721    -0.82000
C669        C  0.42429838  0.60951527  0.35666679     0.98500
O670        O  0.44675025  0.60897563  0.37178382    -0.82000
O671        O  0.40908624  0.58398658  0.42164308    -0.84700
C672        C  0.38584782  0.56187604  0.43761633     1.03000
O673        O  0.37169407  0.52999139  0.43238790    -0.77500
O674        O  0.33454913  0.50902497  0.38514827    -0.77600
C675        C  0.32864498  0.51020498  0.35984933     1.03000
O676        O  0.40387413  0.49642972  0.33877473    -0.85000
O677        O  0.45385946  0.56482475  0.33796780    -0.82000
C678        C  0.47705697  0.56486788  0.35263820     0.98500
O679        O  0.47335620  0.56240380  0.37887530    -0.82100
O680        O  0.43972238  0.54497407  0.43090656    -0.84700
C681        C  0.42529421  0.51316222  0.43496497     1.03000
O682        O  0.40391826  0.99176036  0.41801421    -0.77500
O683        O  0.36470390  0.96620435  0.37085525    -0.77600
C684        C  0.38304831  0.96791445  0.34979896     1.02900
Cr685      Cr  0.40237079  0.53928435  0.34415076     1.93700
Cr686      Cr  0.43957658  0.57225892  0.39895769     1.93200
Cr687      Cr  0.37127122  0.50199981  0.39977301     1.39100
O688        O  0.40423775  0.53765960  0.38112208    -1.22700
O689        O  0.39746710  0.75862893  0.34613915    -0.85000
O690        O  0.34849909  0.77732814  0.34081133    -0.82000
C691        C  0.32595450  0.76121392  0.35942544     0.98500
O692        O  0.33191027  0.76936701  0.38471853    -0.82000
O693        O  0.36942706  0.78539148  0.43199536    -0.84700
C694        C  0.38264157  0.76681475  0.43649511     1.03000
O695        O  0.40526492  0.76706316  0.42009708    -0.77500
O696        O  0.44419858  0.77955610  0.37094084    -0.77600
C697        C  0.42166482  0.75583294  0.35599013     1.03000
O698        O  0.45151329  0.82989045  0.33806398    -0.85000
O699        O  0.40181954  0.84804653  0.33770037    -0.82000
C700        C  0.38192629  0.85700227  0.34898396     0.98500
O701        O  0.36442481  0.84218021  0.37075516    -0.82100
O702        O  0.40370176  0.85635661  0.41787060    -0.84700
C703        C  0.42453915  0.85614036  0.43488655     1.03000
O704        O  0.43716912  0.83708957  0.43114266    -0.77500
O705        O  0.47069269  0.85250419  0.37937597    -0.77600
C706        C  0.47448772  0.85338062  0.35316612     1.02900
Cr707      Cr  0.40003913  0.80383007  0.34370891     1.93700
Cr708      Cr  0.36983506  0.81299925  0.39955224     1.93200
Cr709      Cr  0.43665855  0.80918860  0.39857356     1.39100
O710        O  0.40192114  0.80870912  0.38069398    -1.22700
O711        O  0.16452181  0.59054601  0.34041781    -0.85000
O712        O  0.18187591  0.54042787  0.34592824    -0.82000
C713        C  0.18422474  0.51609169  0.35613073     0.98500
O714        O  0.16044092  0.49425032  0.37165719    -0.82000
O715        O  0.17353292  0.53392780  0.42015216    -0.84700
C716        C  0.17476132  0.55739411  0.43593463     1.03000
O717        O  0.15594738  0.57034946  0.43172340    -0.77500
O718        O  0.17272580  0.60728214  0.38419939    -0.77600
C719        C  0.18073745  0.61314451  0.35883339     1.03000
O720        O  0.09302990  0.53838869  0.33803205    -0.85000
O721        O  0.11008314  0.48763935  0.33864605    -0.82000
C722        C  0.08654561  0.96466761  0.35390998     0.98500
O723        O  0.08740038  0.96853717  0.38013180    -0.82100
O724        O  0.10300683  0.00289683  0.43161393    -0.84700
C725        C  0.08406965  0.51580038  0.43490860     1.03000
O726        O  0.08485176  0.53708190  0.41782217    -0.77500
O727        O  0.10026787  0.57632212  0.37077605    -0.77600
C728        C  0.08483708  0.55884167  0.34937971     1.02900
Cr729      Cr  0.13700487  0.53905094  0.34378592     1.93700
Cr730      Cr  0.13102039  0.50262818  0.39909341     1.93200
Cr731      Cr  0.12869808  0.57012193  0.39937485     1.39100
O732        O  0.13218674  0.53747602  0.38079624    -1.22700
C733        C  0.37761571  0.88363948  0.33523246     0.80600
N734        N  0.38159565  0.91194536  0.34951971    -0.77700
C735        C  0.37797429  0.93632977  0.33591390     0.83000
N736        N  0.36892944  0.93147765  0.30872768    -0.77600
C737        C  0.36399558  0.90304333  0.29459796     0.83100
N738        N  0.36874362  0.87932506  0.30783436    -0.79400
C739        C  0.22808158  0.90022819  0.16806992     0.80600
N740        N  0.23289904  0.90937610  0.14069756    -0.77700
C741        C  0.20958313  0.91458543  0.12735378     0.83000
N742        N  0.18096557  0.90980301  0.14136341    -0.77600
C743        C  0.17561114  0.90049711  0.16855834     0.83100
N744        N  0.19966413  0.89643855  0.18225791    -0.79400
C745        C  0.04617179  0.71931907  0.17000651     0.80600
N746        N  0.53528096  0.71406870  0.14313041    -0.77700
C747        C  0.52756057  0.73623660  0.13079061     0.83000
N748        N  0.53130901  0.76400646  0.14537117    -0.77600
C749        C  0.04241681  0.76994781  0.17210965     0.83100
N750        N  0.04922713  0.74705232  0.18473562    -0.79400
C751        C  0.13298102  0.82088247  0.32819298     0.80600
N752        N  0.11424568  0.78612012  0.32725139    -0.77700
C753        C  0.13004074  0.76731811  0.32648287     0.83000
N754        N  0.16488465  0.78358051  0.32594325    -0.77600
C755        C  0.18384854  0.81833924  0.32712777     0.83100
N756        N  0.16774186  0.83682166  0.32809499    -0.79400
O757        O  0.02906305  0.87759481  0.17997055    -0.85000
O758        O  0.09680585  0.92769707  0.17437621    -0.82000
C759        C  0.10076440  0.94953989  0.19300735     0.98500
O760        O  0.10240492  0.94361507  0.21824438    -0.82000
O761        O  0.08192943  0.90647449  0.26572183    -0.84700
C762        C  0.04997966  0.89232206  0.27109024     1.03000
O763        O  0.02786520  0.86933945  0.25512471    -0.77500
O764        O  0.00247862  0.83129891  0.20569310    -0.77600
C765        C  0.50170722  0.85331637  0.19016325     1.03000
O766        O  0.04700526  0.82464404  0.17158142    -0.85000
O767        O  0.11533871  0.87491590  0.17156373    -0.82000
C768        C  0.14390213  0.89561954  0.18243009     0.98500
O769        O  0.14558044  0.91383433  0.20347433    -0.82100
O770        O  0.12025434  0.87444396  0.25079653    -0.84700
C771        C  0.09894570  0.85319957  0.26803466     1.03000
O772        O  0.06704432  0.83883141  0.26432253    -0.77500
O773        O  0.04924866  0.80506600  0.21259373    -0.77600
C774        C  0.04678191  0.80141965  0.18638143     1.02900
Cr775      Cr  0.07220622  0.87601945  0.17741082     1.93700
Cr776      Cr  0.10977452  0.90704075  0.23272710     1.93200
Cr777      Cr  0.03948622  0.83881067  0.23257407     1.39100
O778        O  0.07400900  0.87410101  0.21437304    -1.22700
O779        O  0.07028793  0.59645746  0.18025167    -0.85000
O780        O  0.02022365  0.61401540  0.17454540    -0.82000
C781        C  0.49751828  0.59733281  0.19290660     0.98500
O782        O  0.00311472  0.60497599  0.21830278    -0.82000
O783        O  0.03951414  0.62201834  0.26613311    -0.84700
C784        C  0.05293724  0.60373853  0.27081352     1.03000
O785        O  0.07660636  0.60506616  0.25505212    -0.77500
O786        O  0.11617712  0.61754598  0.20621310    -0.77600
C787        C  0.09449331  0.59395719  0.19058707     1.03000
O788        O  0.12313075  0.66791839  0.17262386    -0.85000
O789        O  0.07249377  0.68528003  0.17211373    -0.82000
C790        C  0.05170169  0.69320594  0.18329218     0.98500
O791        O  0.03381528  0.67745179  0.20458928    -0.82100
O792        O  0.07246180  0.69284324  0.25188140    -0.84700
C793        C  0.09397607  0.69394656  0.26884899     1.03000
O794        O  0.10747336  0.67555735  0.26547143    -0.77500
O795        O  0.14205745  0.69076291  0.21388785    -0.77600
C796        C  0.14603195  0.69151515  0.18766264     1.02900
Cr797      Cr  0.07170318  0.64128782  0.17796125     1.93700
Cr798      Cr  0.03989119  0.64906967  0.23345166     1.93200
Cr799      Cr  0.10786408  0.64730091  0.23333022     1.39100
O800        O  0.07296476  0.64593465  0.21499568    -1.22700
O801        O  0.33477982  0.92885977  0.17318799    -0.85000
O802        O  0.35280466  0.87952426  0.17838561    -0.82000
C803        C  0.35517363  0.85498386  0.18797565     0.98500
O804        O  0.33125401  0.83251704  0.20296793    -0.82000
O805        O  0.34466239  0.87158720  0.25189966    -0.84700
C806        C  0.34532100  0.89437302  0.26819724     1.03000
O807        O  0.32656949  0.90751619  0.26410968    -0.77500
O808        O  0.34174867  0.94532389  0.21704503    -0.77600
C809        C  0.35034371  0.95136090  0.19178352     1.03000
O810        O  0.26379025  0.87621073  0.17026482    -0.85000
O811        O  0.28115167  0.82606959  0.17070661    -0.82000
C812        C  0.25760261  0.80314666  0.18599558     0.98500
O813        O  0.25855307  0.80681315  0.21221034    -0.82100
O814        O  0.27472248  0.83990853  0.26404991    -0.84700
C815        C  0.25547405  0.85227995  0.26799779     1.03000
O816        O  0.25510942  0.87311105  0.25102929    -0.77500
O817        O  0.26875204  0.91242234  0.20388527    -0.77600
C818        C  0.25445038  0.89559238  0.18186296     1.02900
Cr819      Cr  0.30776395  0.87743467  0.17618726     1.93700
Cr820      Cr  0.30216437  0.84043046  0.23098104     1.93200
Cr821      Cr  0.29835291  0.90711448  0.23222854     1.39100
O822        O  0.30273327  0.87529888  0.21319437    -1.22700
C823        C  0.17755351  0.71866053  0.17353481     0.80600
N824        N  0.18237017  0.71392216  0.14612602    -0.77700
C825        C  0.21044075  0.73759242  0.13166787     0.83000
N826        N  0.23430251  0.76641115  0.14494929    -0.77600
C827        C  0.23024576  0.77170605  0.17248199     0.83100
N828        N  0.20182950  0.74763139  0.18695148    -0.79400
C829        C  0.39583197  0.60438158  0.00628543     0.80600
N830        N  0.36720434  0.57969515  0.02013895    -0.77700
C831        C  0.34341217  0.55105218  0.00605464     0.83000
N832        N  0.34885016  0.54725681  0.47863961    -0.77600
C833        C  0.37717757  0.57139498  0.46477443     0.83100
N834        N  0.40064218  0.59989458  0.47868885    -0.76700
C835        C  0.39319661  0.73359140  0.00333333     0.80600
N836        N  0.36538459  0.73043094  0.01821655    -0.77700
C837        C  0.34154418  0.73562839  0.00531784     0.83000
N838        N  0.34653689  0.74513393  0.47813318    -0.77600
C839        C  0.37420014  0.74876183  0.46332890     0.83100
N840        N  0.39739304  0.74273291  0.47596483    -0.79400
C841        C  0.28976968  0.64455854  0.16110694     0.80600
N842        N  0.32455249  0.66406826  0.16010730    -0.77700
C843        C  0.34418336  0.64915208  0.15945046     0.83000
N844        N  0.32874525  0.61442997  0.15903529    -0.77600
C845        C  0.29398249  0.59470625  0.16020289     0.83100
N846        N  0.27465485  0.60992277  0.16106408    -0.79400
O847        O  0.99962460  0.76149995  0.00818780    -0.85000
O848        O  0.01754436  0.71168735  0.01388215    -0.82000
C849        C  0.01962487  0.68710097  0.02390004     0.98500
O850        O  0.99583563  0.66526052  0.03946236    -0.82000
O851        O  0.50748076  0.70364007  0.08854714    -0.84700
C852        C  0.50853170  0.72693988  0.10443785     1.03000
O853        O  0.49047239  0.74062942  0.09967364    -0.77500
O854        O  0.00822513  0.77783064  0.05200548    -0.77600
C855        C  0.01617560  0.78386034  0.02664233     1.03000
O856        O  0.42847167  0.70875621  0.50543955    -0.85000
O857        O  0.44648828  0.65882757  0.50564911    -0.82000
C858        C  0.42257146  0.63574216  0.02047246     0.98500
O859        O  0.42260239  0.63936438  0.04669388    -0.82100
O860        O  0.43672454  0.67281765  0.09859238    -0.84700
C861        C  0.41832661  0.68632976  0.10197097     1.03000
O862        O  0.41971058  0.70804171  0.08505156    -0.77500
O863        O  0.43555517  0.74701812  0.03784001    -0.77600
C864        C  0.41997242  0.72905136  0.01661013     1.02900
Cr865      Cr  0.47263957  0.71003445  0.01136254     1.93700
Cr866      Cr  0.46561720  0.67299136  0.06653888     1.93200
Cr867      Cr  0.46381403  0.74081938  0.06687357     1.39100
O868        O  0.46733779  0.70814683  0.04836171    -1.22700
O869        O  0.23532340  0.92803638  0.01115546    -0.85000
O870        O  0.18596955  0.94614128  0.00624856    -0.82000
C871        C  0.16330878  0.93005632  0.02481237     0.98500
O872        O  0.16917738  0.93803232  0.05012948    -0.82000
O873        O  0.20632743  0.95291489  0.09720506    -0.84700
C874        C  0.21906912  0.93383059  0.10112475     1.03000
O875        O  0.24209816  0.93465069  0.08486766    -0.77500
O876        O  0.28191946  0.94870276  0.03600036    -0.77600
C877        C  0.25936053  0.92502129  0.02105553     1.03000
O878        O  0.28913032  0.99994758  0.50408472    -0.85000
O879        O  0.23869111  0.01721545  0.50378592    -0.82000
C880        C  0.21856091  0.52571044  0.01533086     0.98500
O881        O  0.20151531  0.01081197  0.03720502    -0.82100
O882        O  0.24088185  0.52427234  0.08422178    -0.84700
C883        C  0.26159925  0.52371059  0.10118170     1.03000
O884        O  0.27394160  0.50443938  0.09727481    -0.77500
O885        O  0.30804370  0.02144150  0.04575268    -0.77600
C886        C  0.31192858  0.52317161  0.01954367     1.02900
Cr887      Cr  0.23753581  0.97315847  0.00932045     1.93700
Cr888      Cr  0.20703374  0.98128117  0.06540470     1.93200
Cr889      Cr  0.27382478  0.97746773  0.06416183     1.39100
O890        O  0.23920956  0.97737328  0.04634515    -1.22700
O891        O  0.18393563  0.68158973  0.00746177    -0.85000
O892        O  0.23396358  0.74937926  0.01320521    -0.82000
C893        C  0.25809031  0.77658031  0.02358800     0.98500
O894        O  0.28007700  0.77558054  0.03900088    -0.82000
O895        O  0.24168714  0.74988558  0.08837460    -0.84700
C896        C  0.21846345  0.72779835  0.10435333     1.03000
O897        O  0.20406634  0.69592711  0.09895771    -0.77500
O898        O  0.16754829  0.67630858  0.05128354    -0.77600
C899        C  0.16194085  0.67785105  0.02597680     1.03000
O900        O  0.23671340  0.66313687  0.50492502    -0.85000
O901        O  0.28701615  0.73146161  0.50493262    -0.82000
C902        C  0.31006485  0.73135217  0.01969032     0.98500
O903        O  0.30617583  0.72859163  0.04588344    -0.82100
O904        O  0.27173699  0.71022251  0.09748192    -0.84700
C905        C  0.25701134  0.67830776  0.10118956     1.03000
O906        O  0.23574640  0.65729962  0.08397963    -0.77500
O907        O  0.19693012  0.63285924  0.03656203    -0.77600
C908        C  0.21560268  0.63456183  0.01573220     1.02900
Cr909      Cr  0.23556876  0.70623232  0.01063863     1.93700
Cr910      Cr  0.27227210  0.73827754  0.06582815     1.93200
Cr911      Cr  0.20363732  0.66836132  0.06588506     1.39100
O912        O  0.23702772  0.70410153  0.04759747    -1.22700
C913        C  0.21074256  0.60284887  0.00207915     0.80600
N914        N  0.21665402  0.57984437  0.01553875    -0.77700
C915        C  0.21283958  0.55139767  0.00158265     0.83000
N916        N  0.20179493  0.54544581  0.47475535    -0.77600
C917        C  0.19477501  0.56769117  0.46170041     0.83100
N918        N  0.19957438  0.59638233  0.47541401    -0.79400
C919        C  0.26056619  0.80911580  0.01808118    -0.18100
C920        C  0.26153529  0.83624617  0.01536630     0.05900
C921        C  0.26160301  0.86772787  0.01448044     0.07800
C922        C  0.26092527  0.89421574  0.01598673    -0.19000
C923        C  0.04921473  0.68354319  0.01781816    -0.18100
C924        C  0.07425899  0.68028695  0.01534026     0.05900
C925        C  0.10413369  0.67721587  0.01550561     0.07800
C926        C  0.13024871  0.67618401  0.01850530    -0.19000
C927        C  0.04497195  0.81673000  0.01889612    -0.18100
C928        C  0.07081340  0.84423280  0.01532133     0.05900
C929        C  0.10248776  0.87575133  0.01467144     0.07800
C930        C  0.13022218  0.90152383  0.01736793    -0.19000
C931        C  0.27190422  0.65784508  0.14676674    -0.12900
C932        C  0.26313973  0.66656227  0.12655741    -0.14500
C933        C  0.27018329  0.54357958  0.12619341    -0.12900
C934        C  0.27938752  0.56277529  0.14585695    -0.14500
C935        C  0.37643885  0.66736901  0.14528343    -0.12900
C936        C  0.39683285  0.67764704  0.12625280    -0.14500
C937        C  0.46467496  0.56876233  0.18503646    -0.18100
C938        C  0.43698835  0.54317147  0.18161614     0.05900
C939        C  0.40513968  0.01185453  0.18136970     0.07800
C940        C  0.37910780  0.98438130  0.18437492    -0.19000
C941        C  0.38539599  0.85255713  0.18237153    -0.18100
C942        C  0.41136572  0.85094898  0.18052525     0.05900
C943        C  0.44236425  0.85014178  0.18135905     0.07800
C944        C  0.46927725  0.85076720  0.18430344    -0.19000
C945        C  0.10269155  0.98151302  0.18577824    -0.18100
C946        C  0.10220316  0.00797119  0.18293257     0.05900
C947        C  0.10008028  0.53844056  0.18270961     0.07800
C948        C  0.09759874  0.56397672  0.18492457    -0.19000
C949        C  0.10247318  0.71509770  0.29318852    -0.12900
C950        C  0.11252307  0.73521876  0.31227208    -0.14500
C951        C  0.23533857  0.84349626  0.29302153    -0.12900
C952        C  0.21595333  0.83382897  0.31270363    -0.14500
C953        C  0.11902597  0.83805635  0.31372738    -0.12900
C954        C  0.11032360  0.84673576  0.29345081    -0.14500
C955        C  0.29304670  0.73240386  0.35195240    -0.18100
C956        C  0.26576290  0.70628393  0.34858850     0.05900
C957        C  0.23466812  0.67420355  0.34820084     0.07800
C958        C  0.20921248  0.64624274  0.35113677    -0.19000
C959        C  0.42602022  0.64170251  0.35136813    -0.18100
C960        C  0.42613120  0.66842989  0.34901164     0.05900
C961        C  0.42512557  0.69933782  0.34867388     0.07800
C962        C  0.42368403  0.72536896  0.35062042    -0.19000
C963        C  0.29655139  0.50779874  0.35242937    -0.18100
C964        C  0.27007755  0.50814031  0.34922592     0.05900
C965        C  0.23970723  0.51038510  0.34856019     0.07800
C966        C  0.21422952  0.51301431  0.35051383    -0.19000
C967        C  0.44239874  0.89509497  0.47960341    -0.12900
C968        C  0.43286113  0.87603307  0.45986306    -0.14500
C969        C  0.04243250  0.99698985  0.47838363    -0.12900
C970        C  0.06270593  0.50696810  0.45926894    -0.14500
C971        C  0.44052219  0.99306050  0.48060985    -0.12900
C972        C  0.43191675  0.50195661  0.46040757    -0.14500
C973        C  0.05892149  0.56461183  0.83611346     0.80600
N974        N  0.06464225  0.57589991  0.80930772    -0.77700
C975        C  0.04287281  0.58413651  0.79698875     0.83000
N976        N  0.01495489  0.58048493  0.81153678    -0.77600
C977        C  0.00856074  0.56900672  0.83825201     0.83100
N978        N  0.03113030  0.56171051  0.85084121    -0.79400
C979        C  0.00607502  0.88062296  0.83944015     0.80600
N980        N  0.03028388  0.90895858  0.85370556    -0.77700
C981        C  0.05930944  0.93316574  0.84005640     0.83000
N982        N  0.06397014  0.92834361  0.81264287    -0.77600
C983        C  0.04017185  0.90036616  0.79838617     0.83100
N984        N  0.01130035  0.87658695  0.81188273    -0.79400
C985        C  0.45723875  0.97850070  0.99490239     0.80600
N986        N  0.44059088  0.94376940  0.99501003    -0.77700
C987        C  0.45845840  0.92702575  0.99396926     0.83000
N988        N  0.49329877  0.94530310  0.99251368    -0.77600
C989        C  0.01025961  0.98010064  0.99280445     0.83100
N990        N  0.49207794  0.99654731  0.99362798    -0.79400
O991        O  0.35066032  0.51418551  0.84126713    -0.85000
O992        O  0.40025861  0.58211267  0.84649594    -0.82000
C993        C  0.42429516  0.60951274  0.85666597     0.98500
O994        O  0.44674694  0.60897320  0.87178317    -0.82000
O995        O  0.40908242  0.58398512  0.92164161    -0.84700
C996        C  0.38584397  0.56187507  0.93761501     1.03000
O997        O  0.37168923  0.52999038  0.93238658    -0.77500
O998        O  0.33454631  0.50902585  0.88514572    -0.77600
C999        C  0.32864273  0.51020407  0.85984638     1.03000
O1000       O  0.40387299  0.49642822  0.83877566    -0.85000
O1001       O  0.45385739  0.56482342  0.83796831    -0.82000
C1002       C  0.47705459  0.56486648  0.85263908     0.98500
O1003       O  0.47335285  0.56240162  0.87887607    -0.82100
O1004       O  0.43971711  0.54497139  0.93090631    -0.84700
C1005       C  0.42528806  0.51315951  0.93496498     1.03000
O1006       O  0.40392391  0.99175965  0.91800936    -0.77500
O1007       O  0.36470651  0.96620231  0.87085255    -0.77600
C1008       C  0.38304997  0.96791397  0.84979515     1.02900
Cr1009     Cr  0.40236858  0.53928231  0.84415017     1.93700
Cr1010     Cr  0.43957273  0.57225680  0.89895738     1.93200
Cr1011     Cr  0.37126643  0.50199860  0.89977186     1.39100
O1012       O  0.40423427  0.53765778  0.88112147    -1.22700
O1013       O  0.39746724  0.75862772  0.84613881    -0.85000
O1014       O  0.34850067  0.77732797  0.84080948    -0.82000
C1015       C  0.32595606  0.76121534  0.85942400     0.98500
O1016       O  0.33191189  0.76937018  0.88471679    -0.82000
O1017       O  0.36942839  0.78539421  0.93199349    -0.84700
C1018       C  0.38264100  0.76681577  0.93649321     1.03000
O1019       O  0.40526327  0.76706223  0.92009496    -0.77500
O1020       O  0.44419904  0.77955523  0.87093985    -0.77600
C1021       C  0.42166482  0.75583167  0.85598981     1.03000
O1022       O  0.45151492  0.82988904  0.83806327    -0.85000
O1023       O  0.40182239  0.84804600  0.83769662    -0.82000
C1024       C  0.38193031  0.85700337  0.84897991     0.98500
O1025       O  0.36442912  0.84218290  0.87075162    -0.82100
O1026       O  0.40370621  0.85635933  0.91786703    -0.84700
C1027       C  0.42454129  0.85614100  0.93488431     1.03000
O1028       O  0.43716916  0.83708826  0.93114152    -0.77500
O1029       O  0.47069346  0.85250303  0.87937545    -0.77600
C1030       C  0.47448859  0.85337965  0.85316563     1.02900
Cr1031     Cr  0.40004071  0.80382928  0.84370712     1.93700
Cr1032     Cr  0.36983773  0.81300198  0.89954967     1.93200
Cr1033     Cr  0.43665867  0.80918758  0.89857236     1.39100
O1034       O  0.40192248  0.80870939  0.88069204    -1.22700
O1035       O  0.16452386  0.59054656  0.84042061    -0.85000
O1036       O  0.18187529  0.54042697  0.84592926    -0.82000
C1037       C  0.18422334  0.51608993  0.85613066     0.98500
O1038       O  0.16043976  0.49424875  0.87165732    -0.82000
O1039       O  0.17353268  0.53392571  0.92015348    -0.84700
C1040       C  0.17476148  0.55739228  0.93593608     1.03000
O1041       O  0.15594726  0.57034734  0.93172536    -0.77500
O1042       O  0.17272573  0.60728160  0.88420248    -0.77600
C1043       C  0.18073884  0.61314443  0.85883672     1.03000
O1044       O  0.09303145  0.53839154  0.83803319    -0.85000
O1045       O  0.11008190  0.48764023  0.83864639    -0.82000
C1046       C  0.08654226  0.96466867  0.85391069     0.98500
O1047       O  0.08739568  0.96853791  0.88013256    -0.82100
O1048       O  0.10300266  0.00289700  0.93161554    -0.84700
C1049       C  0.08406949  0.51579779  0.93491053     1.03000
O1050       O  0.08485163  0.53708002  0.91782477    -0.77500
O1051       O  0.10026744  0.57632207  0.87077921    -0.77600
C1052       C  0.08483810  0.55884371  0.84938159     1.02900
Cr1053     Cr  0.13700520  0.53905163  0.84378747     1.93700
Cr1054     Cr  0.13101995  0.50262668  0.89909417     1.93200
Cr1055     Cr  0.12869783  0.57012069  0.89937742     1.39100
O1056       O  0.13218653  0.53747530  0.88079785    -1.22700
C1057       C  0.37762079  0.88364092  0.83522791     0.80600
N1058       N  0.38160012  0.91194648  0.84951521    -0.77700
C1059       C  0.37797790  0.93633041  0.83590959     0.83000
N1060       N  0.36893263  0.93147814  0.80872352    -0.77600
C1061       C  0.36399920  0.90304403  0.79459372     0.83100
N1062       N  0.36874822  0.87932624  0.80782991    -0.79400
C1063       C  0.22807973  0.90022491  0.66806897     0.80600
N1064       N  0.23289678  0.90937318  0.64069668    -0.77700
C1065       C  0.20958089  0.91458301  0.62735354     0.83000
N1066       N  0.18096375  0.90980091  0.64136368    -0.77600
C1067       C  0.17560988  0.90049497  0.66855862     0.83100
N1068       N  0.19966280  0.89643576  0.68225754    -0.79400
C1069       C  0.04617218  0.71931979  0.67000788     0.80600
N1070       N  0.53528290  0.71406858  0.64313152    -0.77700
C1071       C  0.52756234  0.73623614  0.63079165     0.83000
N1072       N  0.53130999  0.76400572  0.64537223    -0.77600
C1073       C  0.04241678  0.76994825  0.67211144     0.83100
N1074       N  0.04922702  0.74705270  0.68473724    -0.79400
C1075       C  0.13298220  0.82088091  0.82819266     0.80600
N1076       N  0.11424745  0.78611851  0.82725188    -0.77700
C1077       C  0.13004320  0.76731711  0.82648348     0.83000
N1078       N  0.16488711  0.78358017  0.82594335    -0.77600
C1079       C  0.18385042  0.81833892  0.82712697     0.83100
N1080       N  0.16774311  0.83682079  0.82809383    -0.79400
O1081       O  0.02906275  0.87759494  0.67997163    -0.85000
O1082       O  0.09680564  0.92769659  0.67437641    -0.82000
C1083       C  0.10076546  0.94954009  0.69300726     0.98500
O1084       O  0.10240680  0.94361596  0.71824435    -0.82000
O1085       O  0.08192935  0.90647595  0.76572226    -0.84700
C1086       C  0.04997940  0.89232401  0.77109015     1.03000
O1087       O  0.02786511  0.86934120  0.75512465    -0.77500
O1088       O  0.00247863  0.83129884  0.70569385    -0.77600
C1089       C  0.50170814  0.85331696  0.69016496     1.03000
O1090       O  0.04700455  0.82464393  0.67158316    -0.85000
O1091       O  0.11533783  0.87491524  0.67156449    -0.82000
C1092       C  0.14390142  0.89561809  0.68243090     0.98500
O1093       O  0.14558046  0.91383285  0.70347543    -0.82100
O1094       O  0.12025355  0.87444364  0.75079819    -0.84700
C1095       C  0.09894471  0.85319959  0.76803640     1.03000
O1096       O  0.06704340  0.83883261  0.76432450    -0.77500
O1097       O  0.04924848  0.80506653  0.71259564    -0.77600
C1098       C  0.04678158  0.80141991  0.68638328     1.02900
Cr1099     Cr  0.07220573  0.87601926  0.67741181     1.93700
Cr1100     Cr  0.10977482  0.90704094  0.73272798     1.93200
Cr1101     Cr  0.03948602  0.83881160  0.73257528     1.39100
O1102       O  0.07400897  0.87410145  0.71437404    -1.22700
O1103       O  0.07028541  0.59645608  0.68025182    -0.85000
O1104       O  0.02022193  0.61401519  0.67454706    -0.82000
C1105       C  0.49751716  0.59733179  0.69290630     0.98500
O1106       O  0.00311435  0.60497727  0.71830478    -0.82000
O1107       O  0.03951592  0.62201905  0.76613371    -0.84700
C1108       C  0.05293827  0.60373841  0.77081344     1.03000
O1109       O  0.07660642  0.60506505  0.75505148    -0.77500
O1110       O  0.11617552  0.61754398  0.70621200    -0.77600
C1111       C  0.09449047  0.59395495  0.69058685     1.03000
O1112       O  0.12312929  0.66791720  0.67262337    -0.85000
O1113       O  0.07249291  0.68527955  0.67211425    -0.82000
C1114       C  0.05170193  0.69320649  0.68329337     0.98500
O1115       O  0.03381638  0.67745314  0.70459103    -0.82100
O1116       O  0.07246470  0.69284396  0.75188196    -0.84700
C1117       C  0.09397879  0.69394635  0.76884928     1.03000
O1118       O  0.10747505  0.67555626  0.76547134    -0.77500
O1119       O  0.14205738  0.69076124  0.71388729    -0.77600
C1120       C  0.14603119  0.69151366  0.68766212     1.02900
Cr1121     Cr  0.07170167  0.64128703  0.67796170     1.93700
Cr1122     Cr  0.03989240  0.64907061  0.73345286     1.93200
Cr1123     Cr  0.10786411  0.64729955  0.73332968     1.39100
O1124       O  0.07296466  0.64593428  0.71499604    -1.22700
O1125       O  0.33477953  0.92885795  0.67318603    -0.85000
O1126       O  0.35280417  0.87952256  0.67838368    -0.82000
C1127       C  0.35517353  0.85498248  0.68797378     0.98500
O1128       O  0.33125378  0.83251513  0.70296551    -0.82000
O1129       O  0.34466433  0.87158703  0.75189619    -0.84700
C1130       C  0.34532297  0.89437275  0.76819385     1.03000
O1131       O  0.32657004  0.90751460  0.76410724    -0.77500
O1132       O  0.34174671  0.94532228  0.71704305    -0.77600
C1133       C  0.35034240  0.95135942  0.69178167     1.03000
O1134       O  0.26378957  0.87620857  0.67026282    -0.85000
O1135       O  0.28115089  0.82606730  0.67070557    -0.82000
C1136       C  0.25760248  0.80314441  0.68599508     0.98500
O1137       O  0.25855361  0.80681107  0.71220983    -0.82100
O1138       O  0.27472481  0.83990771  0.76404905    -0.84700
C1139       C  0.25547524  0.85227786  0.76799659     1.03000
O1140       O  0.25510906  0.87310741  0.75102738    -0.77500
O1141       O  0.26874994  0.91241868  0.70388412    -0.77600
C1142       C  0.25444888  0.89558930  0.68186150     1.02900
Cr1143     Cr  0.30776339  0.87743259  0.67618535     1.93700
Cr1144     Cr  0.30216540  0.84042919  0.73097926     1.93200
Cr1145     Cr  0.29835193  0.90711185  0.73222670     1.39100
O1146       O  0.30273305  0.87529691  0.71319239    -1.22700
C1147       C  0.17755274  0.71865875  0.67353432     0.80600
N1148       N  0.18236928  0.71392075  0.64612553    -0.77700
C1149       C  0.21044005  0.73759076  0.63166759     0.83000
N1150       N  0.23430226  0.76640904  0.64494922    -0.77600
C1151       C  0.23024554  0.77170369  0.67248186     0.83100
N1152       N  0.20182917  0.74762929  0.68695129    -0.79400
C1153       C  0.39583200  0.60437983  0.50628756     0.80600
N1154       N  0.36720296  0.57969366  0.52013967    -0.77700
C1155       C  0.34341093  0.55105172  0.50605405     0.83000
N1156       N  0.34884970  0.54725644  0.97863999    -0.77600
C1157       C  0.37717550  0.57139478  0.96477342     0.83100
N1158       N  0.40064040  0.59989544  0.97868651    -0.76700
C1159       C  0.39319581  0.73358807  0.50333492     0.80600
N1160       N  0.36538351  0.73042754  0.51821779    -0.77700
C1161       C  0.34154344  0.73562544  0.50531883     0.83000
N1162       N  0.34653693  0.74513637  0.97813197    -0.77600
C1163       C  0.37419982  0.74876375  0.96332735     0.83100
N1164       N  0.39739300  0.74273531  0.97596311    -0.79400
C1165       C  0.28976931  0.64455598  0.66110617     0.80600
N1166       N  0.32455219  0.66406580  0.66010809    -0.77700
C1167       C  0.34418307  0.64914961  0.65945270     0.83000
N1168       N  0.32874505  0.61442754  0.65903691    -0.77600
C1169       C  0.29398221  0.59470381  0.66020261     0.83100
N1170       N  0.27465457  0.60992028  0.66106260    -0.79400
O1171       O  0.99962376  0.76149872  0.50818803    -0.85000
O1172       O  0.01754299  0.71168614  0.51388335    -0.82000
C1173       C  0.01962362  0.68710005  0.52390170     0.98500
O1174       O  0.99583457  0.66525997  0.53946431    -0.82000
O1175       O  0.50748084  0.70363768  0.58854947    -0.84700
C1176       C  0.50853239  0.72693827  0.60443963     1.03000
O1177       O  0.49047239  0.74062714  0.59967586    -0.77500
O1178       O  0.00822556  0.77783074  0.55200536    -0.77600
C1179       C  0.01617554  0.78385943  0.52664205     1.03000
O1180       O  0.42847112  0.70875842  0.00543764    -0.85000
O1181       O  0.44648806  0.65883013  0.00564552    -0.82000
C1182       C  0.42257114  0.63573969  0.52047567     0.98500
O1183       O  0.42260150  0.63936150  0.54669718    -0.82100
O1184       O  0.43672532  0.67281532  0.59859636    -0.84700
C1185       C  0.41832719  0.68632712  0.60197506     1.03000
O1186       O  0.41970993  0.70803794  0.58505511    -0.77500
O1187       O  0.43555256  0.74701350  0.53784326    -0.77600
C1188       C  0.41997156  0.72904800  0.51661233     1.02900
Cr1189     Cr  0.47263977  0.71003170  0.51136580     1.93700
Cr1190     Cr  0.46561667  0.67298846  0.56654210     1.93200
Cr1191     Cr  0.46381267  0.74081608  0.56687657     1.39100
O1192       O  0.46733711  0.70814388  0.54836484    -1.22700
O1193       O  0.23532293  0.92803635  0.51115439    -0.85000
O1194       O  0.18596918  0.94614201  0.50624676    -0.82000
C1195       C  0.16330837  0.93005357  0.52480972     0.98500
O1196       O  0.16917616  0.93802658  0.55012732    -0.82000
O1197       O  0.20632372  0.95291147  0.59720448    -0.84700
C1198       C  0.21906649  0.93382826  0.60112454     1.03000
O1199       O  0.24209631  0.93464947  0.58486781    -0.77500
O1200       O  0.28191783  0.94870210  0.53600108    -0.77600
C1201       C  0.25935952  0.92502094  0.52105542     1.03000
O1202       O  0.28913061  0.99994814  0.00408394    -0.85000
O1203       O  0.23869027  0.01721469  0.00378434    -0.82000
C1204       C  0.21855761  0.52570891  0.51532991     0.98500
O1205       O  0.20150988  0.01080631  0.53720300    -0.82100
O1206       O  0.24088219  0.52427198  0.58422068    -0.84700
C1207       C  0.26159936  0.52370956  0.60118047     1.03000
O1208       O  0.27394067  0.50443752  0.59727358    -0.77500
O1209       O  0.30804127  0.02144143  0.54575356    -0.77600
C1210       C  0.31192663  0.52317116  0.51954232     1.02900
Cr1211     Cr  0.23753549  0.97315852  0.50932017     1.93700
Cr1212     Cr  0.20702932  0.98127662  0.56540346     1.93200
Cr1213     Cr  0.27382243  0.97746705  0.56416234     1.39100
O1214       O  0.23920734  0.97737152  0.54634492    -1.22700
O1215       O  0.18393484  0.68159044  0.50746289    -0.85000
O1216       O  0.23396386  0.74937925  0.51320593    -0.82000
C1217       C  0.25809065  0.77658011  0.52358884     0.98500
O1218       O  0.28007733  0.77557985  0.53900140    -0.82000
O1219       O  0.24168617  0.74988417  0.58837441    -0.84700
C1220       C  0.21846302  0.72779690  0.60435335     1.03000
O1221       O  0.20406685  0.69592556  0.59895835    -0.77500
O1222       O  0.16754794  0.67630766  0.55128496    -0.77600
C1223       C  0.16194030  0.67785105  0.52597844     1.03000
O1224       O  0.23671545  0.66313801  0.00492510    -0.85000
O1225       O  0.28701662  0.73146354  0.00493217    -0.82000
C1226       C  0.31006416  0.73134990  0.51969102     0.98500
O1227       O  0.30617518  0.72859000  0.54588413    -0.82100
O1228       O  0.27173611  0.71022110  0.59748222    -0.84700
C1229       C  0.25701135  0.67830630  0.60118919     1.03000
O1230       O  0.23574675  0.65729833  0.58397896    -0.77500
O1231       O  0.19692857  0.63285817  0.53656229    -0.77600
C1232       C  0.21560058  0.63456075  0.51573215     1.02900
Cr1233     Cr  0.23556805  0.70623173  0.51063903     1.93700
Cr1234     Cr  0.27227153  0.73827629  0.56582850     1.93200
Cr1235     Cr  0.20363704  0.66836008  0.56588547     1.39100
O1236       O  0.23702715  0.70410046  0.54759774    -1.22700
C1237       C  0.21073984  0.60284790  0.50207894     0.80600
N1238       N  0.21665025  0.57984263  0.51553845    -0.77700
C1239       C  0.21283612  0.55139634  0.50158195     0.83000
N1240       N  0.20179707  0.54544593  0.97475645    -0.77600
C1241       C  0.19477630  0.56769047  0.96170134     0.83100
N1242       N  0.19957592  0.59638212  0.97541452    -0.79400
C1243       C  0.26056641  0.80911574  0.51808250    -0.18100
C1244       C  0.26153503  0.83624593  0.51536748     0.05900
C1245       C  0.26160231  0.86772746  0.51448098     0.07800
C1246       C  0.26092437  0.89421534  0.51598677    -0.19000
C1247       C  0.04921363  0.68354249  0.51782037    -0.18100
C1248       C  0.07425822  0.68028679  0.51534305     0.05900
C1249       C  0.10413305  0.67721607  0.51550856     0.07800
C1250       C  0.13024810  0.67618422  0.51850779    -0.19000
C1251       C  0.04497210  0.81672833  0.51889498    -0.18100
C1252       C  0.07081371  0.84423050  0.51531906     0.05900
C1253       C  0.10248825  0.87574859  0.51466779     0.07800
C1254       C  0.13022259  0.90152106  0.51736393    -0.19000
C1255       C  0.27190438  0.65784306  0.64676594    -0.12900
C1256       C  0.26313998  0.66656058  0.62655678    -0.14500
C1257       C  0.27018405  0.54357840  0.62619215    -0.12900
C1258       C  0.27938825  0.56277345  0.64585605    -0.14500
C1259       C  0.37643974  0.66736694  0.64528751    -0.12900
C1260       C  0.39683420  0.67764498  0.62625727    -0.14500
C1261       C  0.46467416  0.56876175  0.68503534    -0.18100
C1262       C  0.43698779  0.54317094  0.68161444     0.05900
C1263       C  0.40513799  0.01185448  0.68137002     0.07800
C1264       C  0.37910624  0.98438057  0.68437366    -0.19000
C1265       C  0.38539677  0.85255720  0.68237099    -0.18100
C1266       C  0.41136716  0.85095031  0.68052615     0.05900
C1267       C  0.44236605  0.85014417  0.68136121     0.07800
C1268       C  0.46927881  0.85076930  0.68430583    -0.19000
C1269       C  0.10269291  0.98151325  0.68577774    -0.18100
C1270       C  0.10220460  0.00797143  0.68293192     0.05900
C1271       C  0.10007476  0.53843645  0.68271055     0.07800
C1272       C  0.09759403  0.56397316  0.68492506    -0.19000
C1273       C  0.10247644  0.71509705  0.79318906    -0.12900
C1274       C  0.11252607  0.73521770  0.81227287    -0.14500
C1275       C  0.23534032  0.84349490  0.79302060    -0.12900
C1276       C  0.21595516  0.83382855  0.81270275    -0.14500
C1277       C  0.11902577  0.83805404  0.81372770    -0.12900
C1278       C  0.11032257  0.84673416  0.79345197    -0.14500
C1279       C  0.29304827  0.73240462  0.85195208    -0.18100
C1280       C  0.26576458  0.70628399  0.84858986     0.05900
C1281       C  0.23467013  0.67420331  0.84820410     0.07800
C1282       C  0.20921455  0.64624256  0.85114080    -0.19000
C1283       C  0.42601696  0.64169984  0.85136759    -0.18100
C1284       C  0.42612852  0.66842747  0.84901154     0.05900
C1285       C  0.42512392  0.69933579  0.84867419     0.07800
C1286       C  0.42368331  0.72536734  0.85062073    -0.19000
C1287       C  0.29654953  0.50779755  0.85242509    -0.18100
C1288       C  0.27007540  0.50813841  0.84922169     0.05900
C1289       C  0.23970474  0.51038245  0.84855719     0.07800
C1290       C  0.21422717  0.51301162  0.85051228    -0.19000
C1291       C  0.44239783  0.89509246  0.97960290    -0.12900
C1292       C  0.43286173  0.87603226  0.95986148    -0.14500
C1293       C  0.04243189  0.99699362  0.97838691    -0.12900
C1294       C  0.06270556  0.50696424  0.95927087    -0.14500
C1295       C  0.44052417  0.99305841  0.98060645    -0.12900
C1296       C  0.43191086  0.50195402  0.96040747    -0.14500
C1297       C  0.55892003  0.06460850  0.33611162     0.80600
N1298       N  0.56464025  0.07589712  0.30930601    -0.77700
C1299       C  0.54287159  0.08413568  0.29698827     0.83000
N1300       N  0.51495485  0.08048543  0.31153747    -0.77600
C1301       C  0.50856116  0.06900657  0.33825267     0.83100
N1302       N  0.53113007  0.06170850  0.35084051    -0.79400
C1303       C  0.50607660  0.38062418  0.33944118     0.80600
N1304       N  0.53028626  0.40895973  0.35370615    -0.77700
C1305       C  0.55931231  0.43316587  0.34005674     0.83000
N1306       N  0.56397252  0.42834277  0.31264333    -0.77600
C1307       C  0.54017350  0.40036545  0.29838705     0.83100
N1308       N  0.51130167  0.37658716  0.31188381    -0.79400
C1309       C  0.95723796  0.47850188  0.49490404     0.80600
N1310       N  0.94059122  0.44377057  0.49501113    -0.77700
C1311       C  0.95845987  0.42702811  0.49396858     0.83000
N1312       N  0.99330008  0.44530653  0.49251131    -0.77600
C1313       C  0.51025942  0.48009859  0.49280206     0.83100
N1314       N  0.99207707  0.49654963  0.49362782    -0.79400
O1315       O  0.85066361  0.01418831  0.34126864    -0.85000
O1316       O  0.90026258  0.08211495  0.34649700    -0.82000
C1317       C  0.92429921  0.10951503  0.35666693     0.98500
O1318       O  0.94675105  0.10897539  0.37178400    -0.82000
O1319       O  0.90908726  0.08398604  0.42164316    -0.84700
C1320       C  0.88584884  0.06187554  0.43761640     1.03000
O1321       O  0.87169485  0.02999093  0.43238780    -0.77500
O1322       O  0.83455048  0.00902637  0.38514763    -0.77600
C1323       C  0.82864637  0.01020586  0.35984858     1.03000
O1324       O  0.90387542  0.99642966  0.33877460    -0.85000
O1325       O  0.95386044  0.06482489  0.33796759    -0.82000
C1326       C  0.97705791  0.06486784  0.35263790     0.98500
O1327       O  0.97335715  0.06240363  0.37887496    -0.82100
O1328       O  0.93972314  0.04497289  0.43090596    -0.84700
C1329       C  0.92529455  0.01316094  0.43496416     1.03000
O1330       O  0.90391894  0.49175955  0.41801439    -0.77500
O1331       O  0.86470397  0.46620359  0.37085595    -0.77600
C1332       C  0.88304803  0.46791399  0.34979930     1.02900
Cr1333     Cr  0.90237194  0.03928428  0.34415048     1.93700
Cr1334     Cr  0.93957749  0.07225849  0.39895754     1.93200
Cr1335     Cr  0.87127176  0.00199984  0.39977244     1.39100
O1336       O  0.90423869  0.03765948  0.38112177    -1.22700
O1337       O  0.89746744  0.25862856  0.34613894    -0.85000
O1338       O  0.84849955  0.27732767  0.34081133    -0.82000
C1339       C  0.82595523  0.26121319  0.35942553     0.98500
O1340       O  0.83191096  0.26936656  0.38471857    -0.82000
O1341       O  0.86942774  0.28539089  0.43199506    -0.84700
C1342       C  0.88264203  0.26681394  0.43649462     1.03000
O1343       O  0.90526547  0.26706245  0.42009661    -0.77500
O1344       O  0.94419913  0.27955589  0.37094028    -0.77600
C1345       C  0.92166514  0.25583254  0.35598987     1.03000
O1346       O  0.95151365  0.32989020  0.33806369    -0.85000
O1347       O  0.90181968  0.34804610  0.33770001    -0.82000
C1348       C  0.88192650  0.35700185  0.34898375     0.98500
O1349       O  0.86442537  0.34217990  0.37075515    -0.82100
O1350       O  0.90370251  0.35635608  0.41787058    -0.84700
C1351       C  0.92453985  0.35613963  0.43488648     1.03000
O1352       O  0.93716969  0.33708875  0.43114250    -0.77500
O1353       O  0.97069307  0.35250379  0.37937575    -0.77600
C1354       C  0.97448795  0.35338040  0.35316582     1.02900
Cr1355     Cr  0.90003952  0.30382972  0.34370870     1.93700
Cr1356     Cr  0.86983569  0.31299885  0.39955218     1.93200
Cr1357     Cr  0.93665907  0.30918806  0.39857325     1.39100
O1358       O  0.90192167  0.30870876  0.38069379    -1.22700
O1359       O  0.66452219  0.09054527  0.34041697    -0.85000
O1360       O  0.68187635  0.04042737  0.34592665    -0.82000
C1361       C  0.68422578  0.01609162  0.35612928     0.98500
O1362       O  0.66044258  0.99425049  0.37165632    -0.82000
O1363       O  0.67353479  0.03392835  0.42015149    -0.84700
C1364       C  0.67476259  0.05739425  0.43593422     1.03000
O1365       O  0.65594816  0.07034903  0.43172294    -0.77500
O1366       O  0.67272647  0.10728123  0.38419863    -0.77600
C1367       C  0.68073818  0.11314354  0.35883262     1.03000
O1368       O  0.59303007  0.03838802  0.33803145    -0.85000
O1369       O  0.61008347  0.98763878  0.33864546    -0.82000
C1370       C  0.58654567  0.46466914  0.35391030     0.98500
O1371       O  0.58739990  0.46853867  0.38013210    -0.82100
O1372       O  0.60300647  0.50289757  0.43161446    -0.84700
C1373       C  0.58407090  0.01579965  0.43490795     1.03000
O1374       O  0.58485256  0.03708078  0.41782133    -0.77500
O1375       O  0.60026844  0.07632147  0.37077543    -0.77600
C1376       C  0.58483739  0.05884107  0.34937911     1.02900
Cr1377     Cr  0.63700520  0.03905031  0.34378506     1.93700
Cr1378     Cr  0.63102212  0.00262815  0.39909281     1.93200
Cr1379     Cr  0.62869878  0.07012118  0.39937418     1.39100
O1380       O  0.63218769  0.03747552  0.38079550    -1.22700
C1381       C  0.87761577  0.38363920  0.33523238     0.80600
N1382       N  0.88159551  0.41194492  0.34951978    -0.77700
C1383       C  0.87797428  0.43632950  0.33591412     0.83000
N1384       N  0.86892977  0.43147777  0.30872781    -0.77600
C1385       C  0.86399615  0.40304373  0.29459788     0.83100
N1386       N  0.86874407  0.37932524  0.30783415    -0.79400
C1387       C  0.72808139  0.40022729  0.16806975     0.80600
N1388       N  0.73289865  0.40937520  0.14069736    -0.77700
C1389       C  0.70958262  0.41458450  0.12735377     0.83000
N1390       N  0.68096522  0.40980220  0.14136363    -0.77600
C1391       C  0.67561110  0.40049638  0.16855865     0.83100
N1392       N  0.69966414  0.39643773  0.18225792    -0.79400
C1393       C  0.54617052  0.21931905  0.17000669     0.80600
N1394       N  0.03528111  0.21406987  0.14313057    -0.77700
C1395       C  0.02756101  0.23623797  0.13079070     0.83000
N1396       N  0.03130934  0.26400768  0.14537136    -0.77600
C1397       C  0.54241562  0.26994792  0.17211008     0.83100
N1398       N  0.54922589  0.24705228  0.18473592    -0.79400
C1399       C  0.63298037  0.32088089  0.32819346     0.80600
N1400       N  0.61424543  0.28611851  0.32725179    -0.77700
C1401       C  0.63004090  0.26731693  0.32648262     0.83000
N1402       N  0.66488483  0.28357973  0.32594248    -0.77600
C1403       C  0.68384834  0.31833849  0.32712736     0.83100
N1404       N  0.66774125  0.33682050  0.32809514    -0.79400
O1405       O  0.52906481  0.37759705  0.17997150    -0.85000
O1406       O  0.59680805  0.42769779  0.17437735    -0.82000
C1407       C  0.60076679  0.44954057  0.19300857     0.98500
O1408       O  0.60240676  0.44361538  0.21824563    -0.82000
O1409       O  0.58193013  0.40647435  0.26572291    -0.84700
C1410       C  0.54998031  0.39232284  0.27109090     1.03000
O1411       O  0.52786573  0.36934071  0.25512518    -0.77500
O1412       O  0.50247906  0.33130074  0.20569342    -0.77600
C1413       C  0.00170767  0.35331792  0.19016238     1.03000
O1414       O  0.54700498  0.32464466  0.17158205    -0.85000
O1415       O  0.61533880  0.37491532  0.17156457    -0.82000
C1416       C  0.64390231  0.39561879  0.18243078     0.98500
O1417       O  0.64558091  0.41383332  0.20347536    -0.82100
O1418       O  0.62025377  0.37444235  0.25079749    -0.84700
C1419       C  0.59894469  0.35319821  0.26803554     1.03000
O1420       O  0.56704337  0.33883103  0.26432337    -0.77500
O1421       O  0.54924751  0.30506603  0.21259434    -0.77600
C1422       C  0.54678101  0.30141989  0.18638201     1.02900
Cr1423     Cr  0.57220708  0.37602011  0.17741169     1.93700
Cr1424     Cr  0.60977519  0.40704020  0.23272824     1.93200
Cr1425     Cr  0.53948596  0.33881130  0.23257468     1.39100
O1426       O  0.57400947  0.37410123  0.21437390    -1.22700
O1427       O  0.57028723  0.09645740  0.18025047    -0.85000
O1428       O  0.52022318  0.11401573  0.17454483    -0.82000
C1429       C  0.99751809  0.09733311  0.19290519     0.98500
O1430       O  0.50311460  0.10497550  0.21830228    -0.82000
O1431       O  0.53951396  0.12201776  0.26613255    -0.84700
C1432       C  0.55293692  0.10373775  0.27081274     1.03000
O1433       O  0.57660563  0.10506510  0.25505103    -0.77500
O1434       O  0.61617625  0.11754531  0.20621204    -0.77600
C1435       C  0.59449217  0.09395657  0.19058615     1.03000
O1436       O  0.62313026  0.16791857  0.17262322    -0.85000
O1437       O  0.57249320  0.18528042  0.17211356    -0.82000
C1438       C  0.55170085  0.19320595  0.18329211     0.98500
O1439       O  0.53381440  0.17745130  0.20458906    -0.82100
O1440       O  0.57246142  0.19284269  0.25188102    -0.84700
C1441       C  0.59397576  0.19394579  0.26884848     1.03000
O1442       O  0.60747284  0.17555641  0.26547078    -0.77500
O1443       O  0.64205703  0.19076224  0.21388744    -0.77600
C1444       C  0.64603165  0.19151487  0.18766227     1.02900
Cr1445     Cr  0.57170263  0.14128800  0.17796059     1.93700
Cr1446     Cr  0.53989073  0.14906919  0.23345125     1.93200
Cr1447     Cr  0.60786346  0.14730009  0.23332944     1.39100
O1448       O  0.57296426  0.14593433  0.21499506    -1.22700
O1449       O  0.83477934  0.42885935  0.17318714    -0.85000
O1450       O  0.85280453  0.37952411  0.17838522    -0.82000
C1451       C  0.85517371  0.35498390  0.18797535     0.98500
O1452       O  0.83125446  0.33251730  0.20296807    -0.82000
O1453       O  0.84466321  0.37158798  0.25189940    -0.84700
C1454       C  0.84532186  0.39437379  0.26819696     1.03000
O1455       O  0.82657049  0.40751714  0.26410926    -0.77500
O1456       O  0.84174895  0.44532407  0.21704404    -0.77600
C1457       C  0.85034354  0.45136082  0.19178242     1.03000
O1458       O  0.76378994  0.37620977  0.17026466    -0.85000
O1459       O  0.78115185  0.32606895  0.17070705    -0.82000
C1460       C  0.75760292  0.30314614  0.18599618     0.98500
O1461       O  0.75855345  0.30681300  0.21221092    -0.82100
O1462       O  0.77472342  0.33990941  0.26405029    -0.84700
C1463       C  0.75547487  0.35228071  0.26799806     1.03000
O1464       O  0.75511019  0.37311171  0.25102947    -0.77500
O1465       O  0.76875216  0.41242194  0.20388480    -0.77600
C1466       C  0.75445028  0.39559163  0.18186265     1.02900
Cr1467     Cr  0.80776378  0.37743414  0.17618705     1.93700
Cr1468     Cr  0.80216497  0.34043089  0.23098124     1.93200
Cr1469     Cr  0.79835343  0.40711484  0.23222814     1.39100
O1470       O  0.80273358  0.37529896  0.21319423    -1.22700
C1471       C  0.67755360  0.21866011  0.17353479     0.80600
N1472       N  0.68237064  0.21392194  0.14612604    -0.77700
C1473       C  0.71044162  0.23759210  0.13166823     0.83000
N1474       N  0.73430334  0.26641055  0.14494997    -0.77600
C1475       C  0.73024618  0.27170537  0.17248260     0.83100
N1476       N  0.70182957  0.24763078  0.18695178    -0.79400
C1477       C  0.89583281  0.10438142  0.00628644     0.80600
N1478       N  0.86720487  0.07969521  0.02013982    -0.77700
C1479       C  0.84341292  0.05105211  0.00605548     0.83000
N1480       N  0.84885135  0.04725645  0.47863987    -0.77600
C1481       C  0.87717875  0.07139451  0.46477462     0.83100
N1482       N  0.90064345  0.09989422  0.47868887    -0.76700
C1483       C  0.89319658  0.23359100  0.00333260     0.80600
N1484       N  0.86538478  0.23043104  0.01821582    -0.77700
C1485       C  0.84154426  0.23562826  0.00531703     0.83000
N1486       N  0.84653709  0.24513326  0.47813251    -0.77600
C1487       C  0.87420019  0.24876064  0.46332826     0.83100
N1488       N  0.89739283  0.24273148  0.47596430    -0.79400
C1489       C  0.78977005  0.14455848  0.16110676     0.80600
N1490       N  0.82455285  0.16406805  0.16010712    -0.77700
C1491       C  0.84418357  0.14915176  0.15945035     0.83000
N1492       N  0.82874539  0.11442965  0.15903531    -0.77600
C1493       C  0.79398261  0.09470605  0.16020309     0.83100
N1494       N  0.77465509  0.10992271  0.16106408    -0.79400
O1495       O  0.49962472  0.26150014  0.00818732    -0.85000
O1496       O  0.51754433  0.21168752  0.01388228    -0.82000
C1497       C  0.51962484  0.18710125  0.02390041     0.98500
O1498       O  0.49583545  0.16526083  0.03946260    -0.82000
O1499       O  0.00748151  0.20364149  0.08854734    -0.84700
C1500       C  0.00853235  0.22694136  0.10443789     1.03000
O1501       O  0.99047298  0.24063082  0.09967348    -0.77500
O1502       O  0.50822457  0.27783121  0.05200496    -0.77600
C1503       C  0.51617540  0.28386069  0.02664182     1.03000
O1504       O  0.92847168  0.20875559  0.50543930    -0.85000
O1505       O  0.94648925  0.15882757  0.50564917    -0.82000
C1506       C  0.92257209  0.13574225  0.02047332     0.98500
O1507       O  0.92260311  0.13936480  0.04669471    -0.82100
O1508       O  0.93672541  0.17281900  0.09859282    -0.84700
C1509       C  0.91832722  0.18633082  0.10197120     1.03000
O1510       O  0.91971101  0.20804258  0.08505166    -0.77500
O1511       O  0.93555510  0.24701817  0.03783956    -0.77600
C1512       C  0.91997256  0.22905128  0.01660966     1.02900
Cr1513     Cr  0.97263989  0.21003442  0.01136270     1.93700
Cr1514     Cr  0.96561792  0.17299230  0.06653945     1.93200
Cr1515     Cr  0.96381429  0.24082010  0.06687332     1.39100
O1516       O  0.96733818  0.20814736  0.04836187    -1.22700
O1517       O  0.73532349  0.42803660  0.01115447    -0.85000
O1518       O  0.68596995  0.44614191  0.00624774    -0.82000
C1519       C  0.66330898  0.43005604  0.02481122     0.98500
O1520       O  0.66917727  0.43803104  0.05012852    -0.82000
O1521       O  0.70632650  0.45291348  0.09720468    -0.84700
C1522       C  0.71906842  0.43382943  0.10112453     1.03000
O1523       O  0.74209754  0.43464967  0.08486747    -0.77500
O1524       O  0.78191896  0.44870206  0.03600015    -0.77600
C1525       C  0.75936038  0.42502117  0.02105462     1.03000
O1526       O  0.78913049  0.49994755  0.50408428    -0.85000
O1527       O  0.73869171  0.51721582  0.50378515    -0.82000
C1528       C  0.71856115  0.02571093  0.01533059     0.98500
O1529       O  0.70151462  0.51081081  0.03720468    -0.82100
O1530       O  0.74088302  0.02427324  0.08422176    -0.84700
C1531       C  0.76159973  0.02371074  0.10118199     1.03000
O1532       O  0.77394150  0.00443903  0.09727523    -0.77500
O1533       O  0.80804355  0.52144093  0.04575306    -0.77600
C1534       C  0.81192893  0.02317182  0.01954427     1.02900
Cr1535     Cr  0.73753623  0.47315878  0.00932022     1.93700
Cr1536     Cr  0.70703297  0.48127984  0.06540430     1.93200
Cr1537     Cr  0.77382429  0.47746694  0.06416183     1.39100
O1538       O  0.73920929  0.47737259  0.04634498    -1.22700
O1539       O  0.68393596  0.18159058  0.00746236    -0.85000
O1540       O  0.73396380  0.24937982  0.01320518    -0.82000
C1541       C  0.75809063  0.27658097  0.02358766     0.98500
O1542       O  0.78007729  0.27558136  0.03900071    -0.82000
O1543       O  0.74168771  0.24988587  0.08837470    -0.84700
C1544       C  0.71846461  0.22779834  0.10435364     1.03000
O1545       O  0.70406833  0.19592710  0.09895812    -0.77500
O1546       O  0.66754920  0.17630842  0.05128441    -0.77600
C1547       C  0.66194144  0.17785149  0.02597783     1.03000
O1548       O  0.73671349  0.16313724  0.50492480    -0.85000
O1549       O  0.78701647  0.23146178  0.50493233    -0.82000
C1550       C  0.81006534  0.23135286  0.01968965     0.98500
O1551       O  0.80617667  0.22859276  0.04588283    -0.82100
O1552       O  0.77173844  0.21022339  0.09748153    -0.84700
C1553       C  0.75701358  0.17830861  0.10118876     1.03000
O1554       O  0.73574912  0.15730051  0.08397854    -0.77500
O1555       O  0.69693136  0.13285979  0.03656164    -0.77600
C1556       C  0.71560354  0.13456258  0.01573146     1.02900
Cr1557     Cr  0.73556919  0.20623304  0.01063845     1.93700
Cr1558     Cr  0.77227287  0.23827833  0.06582788     1.93200
Cr1559     Cr  0.70363892  0.16836158  0.06588504     1.39100
O1560       O  0.73702859  0.20410215  0.04759727    -1.22700
C1561       C  0.71074348  0.10284970  0.00207829     0.80600
N1562       N  0.71665445  0.07984497  0.01553807    -0.77700
C1563       C  0.71283987  0.05139815  0.00158213     0.83000
N1564       N  0.70179604  0.04544615  0.47475545    -0.77600
C1565       C  0.69477604  0.06769137  0.46170027     0.83100
N1566       N  0.69957528  0.09638260  0.47541383    -0.79400
C1567       C  0.76056664  0.30911636  0.01808017    -0.18100
C1568       C  0.76153565  0.33624658  0.01536464     0.05900
C1569       C  0.76160321  0.36772814  0.01447838     0.07800
C1570       C  0.76092532  0.39421590  0.01598496    -0.19000
C1571       C  0.54921495  0.18354363  0.01781906    -0.18100
C1572       C  0.57425939  0.18028758  0.01534171     0.05900
C1573       C  0.60413416  0.17721657  0.01550744     0.07800
C1574       C  0.63024919  0.17618465  0.01850696    -0.19000
C1575       C  0.54497178  0.31673034  0.01889555    -0.18100
C1576       C  0.57081327  0.34423303  0.01532044     0.05900
C1577       C  0.60248785  0.37575140  0.01466999     0.07800
C1578       C  0.63022241  0.40152378  0.01736629    -0.19000
C1579       C  0.77190494  0.15784522  0.14676633    -0.12900
C1580       C  0.76314146  0.16656295  0.12655674    -0.14500
C1581       C  0.77018343  0.04357929  0.12619389    -0.12900
C1582       C  0.77938749  0.06277489  0.14585750    -0.14500
C1583       C  0.87643908  0.16736875  0.14528339    -0.12900
C1584       C  0.89683313  0.17764758  0.12625284    -0.14500
C1585       C  0.96467511  0.06876268  0.18503467    -0.18100
C1586       C  0.93698853  0.04317168  0.18161492     0.05900
C1587       C  0.90513954  0.51185471  0.18136886     0.07800
C1588       C  0.87910757  0.48438133  0.18437356    -0.19000
C1589       C  0.88539594  0.35255722  0.18237086    -0.18100
C1590       C  0.91136585  0.35094948  0.18052426     0.05900
C1591       C  0.94236476  0.35014316  0.18135796     0.07800
C1592       C  0.96927796  0.35076903  0.18430239    -0.19000
C1593       C  0.60269461  0.48151406  0.18577947    -0.18100
C1594       C  0.60220649  0.50797234  0.18293366     0.05900
C1595       C  0.60007823  0.03843919  0.18270982     0.07800
C1596       C  0.59759688  0.06397553  0.18492415    -0.19000
C1597       C  0.60247310  0.21509680  0.29318808    -0.12900
C1598       C  0.61252327  0.23521767  0.31227173    -0.14500
C1599       C  0.73533895  0.34349666  0.29302159    -0.12900
C1600       C  0.71595330  0.33382886  0.31270343    -0.14500
C1601       C  0.61902471  0.33805441  0.31372819    -0.12900
C1602       C  0.61032214  0.34673380  0.29345168    -0.14500
C1603       C  0.79304785  0.23240256  0.35195265    -0.18100
C1604       C  0.76576429  0.20628238  0.34858866     0.05900
C1605       C  0.73466961  0.17420206  0.34820060     0.07800
C1606       C  0.70921367  0.14624140  0.35113612    -0.19000
C1607       C  0.92602083  0.14170220  0.35136854    -0.18100
C1608       C  0.92613153  0.16842945  0.34901205     0.05900
C1609       C  0.92512562  0.19933722  0.34867410     0.07800
C1610       C  0.92368410  0.22536839  0.35062044    -0.19000
C1611       C  0.79655301  0.00779992  0.35242825    -0.18100
C1612       C  0.77007923  0.00814143  0.34922432     0.05900
C1613       C  0.73970866  0.01038579  0.34855831     0.07800
C1614       C  0.71423073  0.01301461  0.35051200    -0.19000
C1615       C  0.94239900  0.39509394  0.47960343    -0.12900
C1616       C  0.93286165  0.37603202  0.45986313    -0.14500
C1617       C  0.54243142  0.49698948  0.47838387    -0.12900
C1618       C  0.56270699  0.00696727  0.45926819    -0.14500
C1619       C  0.94052098  0.49305886  0.48061067    -0.12900
C1620       C  0.93191702  0.00195483  0.46040653    -0.14500
C1621       C  0.55892107  0.06461154  0.83611257     0.80600
N1622       N  0.56464197  0.07589978  0.80930686    -0.77700
C1623       C  0.54287258  0.08413637  0.79698780     0.83000
N1624       N  0.51495458  0.08048479  0.81153575    -0.77600
C1625       C  0.50856034  0.06900653  0.83825094     0.83100
N1626       N  0.53112978  0.06171019  0.85084020    -0.79400
C1627       C  0.50607549  0.38062365  0.83944071     0.80600
N1628       N  0.53028456  0.40895928  0.85370604    -0.77700
C1629       C  0.55931046  0.43316602  0.84005694     0.83000
N1630       N  0.56397123  0.42834346  0.81264348    -0.77600
C1631       C  0.54017272  0.40036603  0.79838685     0.83100
N1632       N  0.51130098  0.37658727  0.81188336    -0.79400
C1633       C  0.95723762  0.47849944  0.99490202     0.80600
N1634       N  0.94059015  0.44376815  0.99500975    -0.77700
C1635       C  0.95845811  0.42702495  0.99396874     0.83000
N1636       N  0.99329844  0.44530266  0.99251288    -0.77600
C1637       C  0.51025746  0.48010055  0.99280197     0.83100
N1638       N  0.99207678  0.49654644  0.99362739    -0.79400
O1639       O  0.85066034  0.01418569  0.84126894    -0.85000
O1640       O  0.90025880  0.08211259  0.84649754    -0.82000
C1641       C  0.92429560  0.10951268  0.85666729     0.98500
O1642       O  0.94674762  0.10897311  0.87178420    -0.82000
O1643       O  0.90908399  0.08398450  0.92164291    -0.84700
C1644       C  0.88584581  0.06187433  0.93761642     1.03000
O1645       O  0.87169135  0.02998965  0.93238806    -0.77500
O1646       O  0.83454714  0.00902505  0.88514781    -0.77600
C1647       C  0.82864312  0.01020391  0.85984866     1.03000
O1648       O  0.90387274  0.99642812  0.83877568    -0.85000
O1649       O  0.95385737  0.06482341  0.83796839    -0.82000
C1650       C  0.97705491  0.06486650  0.85263876     0.98500
O1651       O  0.97335370  0.06240149  0.87887576    -0.82100
O1652       O  0.93971927  0.04497082  0.93090664    -0.84700
C1653       C  0.92529048  0.01315886  0.93496498     1.03000
O1654       O  0.90392218  0.49175885  0.91800945    -0.77500
O1655       O  0.86470528  0.46620267  0.87085231    -0.77600
C1656       C  0.88304947  0.46791412  0.84979546     1.02900
Cr1657     Cr  0.90236865  0.03928226  0.84415107     1.93700
Cr1658     Cr  0.93957401  0.07225644  0.89895801     1.93200
Cr1659     Cr  0.87126790  0.00199805  0.89977293     1.39100
O1660       O  0.90423520  0.03765746  0.88112232    -1.22700
O1661       O  0.89746705  0.25862766  0.84613818    -0.85000
O1662       O  0.84850019  0.27732761  0.84080918    -0.82000
C1663       C  0.82595565  0.26121484  0.85942369     0.98500
O1664       O  0.83191132  0.26936973  0.88471647    -0.82000
O1665       O  0.86942784  0.28539317  0.93199283    -0.84700
C1666       C  0.88264071  0.26681488  0.93649235     1.03000
O1667       O  0.90526315  0.26706175  0.92009409    -0.77500
O1668       O  0.94419908  0.27955550  0.87093888    -0.77600
C1669       C  0.92166479  0.25583174  0.85598905     1.03000
O1670       O  0.95151440  0.32988922  0.83806263    -0.85000
O1671       O  0.90182137  0.34804573  0.83769642    -0.82000
C1672       C  0.88192942  0.35700313  0.84897997     0.98500
O1673       O  0.86442843  0.34218262  0.87075175    -0.82100
O1674       O  0.90370564  0.35635860  0.91786704    -0.84700
C1675       C  0.92454074  0.35614010  0.93488419     1.03000
O1676       O  0.93716878  0.33708759  0.93114108    -0.77500
O1677       O  0.97069297  0.35250306  0.87937485    -0.77600
C1678       C  0.97448812  0.35337977  0.85316499     1.02900
Cr1679     Cr  0.90004015  0.30382915  0.84370668     1.93700
Cr1680     Cr  0.86983716  0.31300141  0.89954945     1.93200
Cr1681     Cr  0.93665841  0.30918739  0.89857164     1.39100
O1682       O  0.90192202  0.30870916  0.88069158    -1.22700
O1683       O  0.66452396  0.09054647  0.84042012    -0.85000
O1684       O  0.68187532  0.04042698  0.84592901    -0.82000
C1685       C  0.68422338  0.01608999  0.85613051     0.98500
O1686       O  0.66043950  0.99424864  0.87165681    -0.82000
O1687       O  0.67353304  0.03392614  0.92015287    -0.84700
C1688       C  0.67476189  0.05739276  0.93593541     1.03000
O1689       O  0.65594748  0.07034770  0.93172476    -0.77500
O1690       O  0.67272477  0.10728171  0.88420197    -0.77600
C1691       C  0.68073846  0.11314434  0.85883630     1.03000
O1692       O  0.59303167  0.03839192  0.83803233    -0.85000
O1693       O  0.61008155  0.98764038  0.83864606    -0.82000
C1694       C  0.58654345  0.46466920  0.85391103     0.98500
O1695       O  0.58739709  0.46853875  0.88013287    -0.82100
O1696       O  0.60300384  0.50289810  0.93161555    -0.84700
C1697       C  0.58406967  0.01579764  0.93491056     1.03000
O1698       O  0.58485131  0.03707951  0.91782469    -0.77500
O1699       O  0.60026623  0.07632127  0.87077902    -0.77600
C1700       C  0.58483768  0.05884351  0.84938092     1.02900
Cr1701     Cr  0.63700520  0.03905171  0.84378703     1.93700
Cr1702     Cr  0.63102014  0.00262695  0.89909386     1.93200
Cr1703     Cr  0.62869726  0.07012051  0.89937706     1.39100
O1704       O  0.63218637  0.03747539  0.88079746    -1.22700
C1705       C  0.87761981  0.38364078  0.83522815     0.80600
N1706       N  0.88159920  0.41194634  0.84951552    -0.77700
C1707       C  0.87797715  0.43633042  0.83590996     0.83000
N1708       N  0.86893224  0.43147842  0.80872378    -0.77600
C1709       C  0.86399879  0.40304438  0.79459392     0.83100
N1710       N  0.86874741  0.37932632  0.80783010    -0.79400
C1711       C  0.72808018  0.40022594  0.66806860     0.80600
N1712       N  0.73289693  0.40937381  0.64069621    -0.77700
C1713       C  0.70958079  0.41458344  0.62735311     0.83000
N1714       N  0.68096388  0.40980156  0.64136350    -0.77600
C1715       C  0.67561036  0.40049590  0.66855848     0.83100
N1716       N  0.69966344  0.39643686  0.68225729    -0.79400
C1717       C  0.54617237  0.21932008  0.67000726     0.80600
N1718       N  0.03528338  0.21406938  0.64313086    -0.77700
C1719       C  0.02756282  0.23623703  0.63079112     0.83000
N1720       N  0.03131087  0.26400672  0.64537163    -0.77600
C1721       C  0.54241708  0.26994860  0.67211109     0.83100
N1722       N  0.54922727  0.24705290  0.68473681    -0.79400
C1723       C  0.63298241  0.32087973  0.82819289     0.80600
N1724       N  0.61424800  0.28611734  0.82725188    -0.77700
C1725       C  0.63004401  0.26731622  0.82648326     0.83000
N1726       N  0.66488795  0.28357956  0.82594322    -0.77600
C1727       C  0.68385094  0.31833833  0.82712733     0.83100
N1728       N  0.66774334  0.33681990  0.82809429    -0.79400
O1729       O  0.52906351  0.37759560  0.67997252    -0.85000
O1730       O  0.59680647  0.42769726  0.67437752    -0.82000
C1731       C  0.60076665  0.44954059  0.69300863     0.98500
O1732       O  0.60240786  0.44361598  0.71824563    -0.82000
O1733       O  0.58193003  0.40647522  0.76572306    -0.84700
C1734       C  0.54998010  0.39232353  0.77109086     1.03000
O1735       O  0.52786571  0.36934085  0.75512528    -0.77500
O1736       O  0.50247926  0.33129895  0.70569407    -0.77600
C1737       C  0.00170829  0.35331706  0.69016444     1.03000
O1738       O  0.54700516  0.32464449  0.67158323    -0.85000
O1739       O  0.61533842  0.37491596  0.67156458    -0.82000
C1740       C  0.64390203  0.39561868  0.68243105     0.98500
O1741       O  0.64558111  0.41383270  0.70347609    -0.82100
O1742       O  0.62025396  0.37444268  0.75079855    -0.84700
C1743       C  0.59894496  0.35319852  0.76803661     1.03000
O1744       O  0.56704367  0.33883192  0.76432470    -0.77500
O1745       O  0.54924894  0.30506649  0.71259551    -0.77600
C1746       C  0.54678207  0.30142020  0.68638317     1.02900
Cr1747     Cr  0.57220640  0.37601984  0.67741237     1.93700
Cr1748     Cr  0.60977551  0.40704045  0.73272875     1.93200
Cr1749     Cr  0.53948647  0.33881133  0.73257552     1.39100
O1750       O  0.57400961  0.37410135  0.71437455    -1.22700
O1751       O  0.57028560  0.09645613  0.68025084    -0.85000
O1752       O  0.52022201  0.11401496  0.67454602    -0.82000
C1753       C  0.99751724  0.09733213  0.69290450     0.98500
O1754       O  0.50311414  0.10497750  0.71830373    -0.82000
O1755       O  0.53951571  0.12201890  0.76613271    -0.84700
C1756       C  0.55293801  0.10373825  0.77081249     1.03000
O1757       O  0.57660620  0.10506482  0.75505056    -0.77500
O1758       O  0.61617555  0.11754392  0.70621112    -0.77600
C1759       C  0.59449043  0.09395479  0.69058609     1.03000
O1760       O  0.62312953  0.16791755  0.67262255    -0.85000
O1761       O  0.57249285  0.18527959  0.67211325    -0.82000
C1762       C  0.55170205  0.19320667  0.68329257     0.98500
O1763       O  0.53381663  0.17745346  0.70459027    -0.82100
O1764       O  0.57246496  0.19284393  0.75188117    -0.84700
C1765       C  0.59397896  0.19394607  0.76884849     1.03000
O1766       O  0.60747495  0.17555580  0.76547053    -0.77500
O1767       O  0.64205723  0.19076112  0.71388666    -0.77600
C1768       C  0.64603123  0.19151390  0.68766149     1.02900
Cr1769     Cr  0.57170179  0.14128710  0.67796071     1.93700
Cr1770     Cr  0.53989239  0.14907070  0.73345196     1.93200
Cr1771     Cr  0.60786393  0.14729930  0.73332883     1.39100
O1772       O  0.57296456  0.14593418  0.71499512    -1.22700
O1773       O  0.83478009  0.42885884  0.67318660    -0.85000
O1774       O  0.85280451  0.37952331  0.67838427    -0.82000
C1775       C  0.85517358  0.35498299  0.68797420     0.98500
O1776       O  0.83125344  0.33251551  0.70296552    -0.82000
O1777       O  0.84466446  0.37158802  0.75189601    -0.84700
C1778       C  0.84532276  0.39437338  0.76819394     1.03000
O1779       O  0.82656950  0.40751496  0.76410760    -0.77500
O1780       O  0.84174577  0.44532320  0.71704368    -0.77600
C1781       C  0.85034206  0.45136035  0.69178239     1.03000
O1782       O  0.76379036  0.37621004  0.67026247    -0.85000
O1783       O  0.78115094  0.32606820  0.67070581    -0.82000
C1784       C  0.75760245  0.30314522  0.68599529     0.98500
O1785       O  0.75855356  0.30681175  0.71221006    -0.82100
O1786       O  0.77472533  0.33990858  0.76404942    -0.84700
C1787       C  0.75547531  0.35227820  0.76799691     1.03000
O1788       O  0.75510841  0.37310712  0.75102744    -0.77500
O1789       O  0.76874942  0.41241900  0.70388441    -0.77600
C1790       C  0.75444927  0.39559038  0.68186128     1.02900
Cr1791     Cr  0.80776377  0.37743355  0.67618558     1.93700
Cr1792     Cr  0.80216543  0.34042993  0.73097935     1.93200
Cr1793     Cr  0.79835129  0.40711221  0.73222707     1.39100
O1794       O  0.80273295  0.37529765  0.71319258    -1.22700
C1795       C  0.67755292  0.21865938  0.67353397     0.80600
N1796       N  0.68237003  0.21392138  0.64612530    -0.77700
C1797       C  0.71044113  0.23759149  0.63166767     0.83000
N1798       N  0.73430287  0.26640982  0.64494942    -0.77600
C1799       C  0.73024562  0.27170454  0.67248193     0.83100
N1800       N  0.70182899  0.24762997  0.68695112    -0.79400
C1801       C  0.89583329  0.10437966  0.50628759     0.80600
N1802       N  0.86720423  0.07969367  0.52013973    -0.77700
C1803       C  0.84341218  0.05105169  0.50605439     0.83000
N1804       N  0.84885096  0.04725599  0.97864104    -0.77600
C1805       C  0.87717709  0.07139414  0.96477466     0.83100
N1806       N  0.90064171  0.09989492  0.97868770    -0.76700
C1807       C  0.89319554  0.23358695  0.50333447     0.80600
N1808       N  0.86538345  0.23042697  0.51821729    -0.77700
C1809       C  0.84154362  0.23562508  0.50531825     0.83000
N1810       N  0.84653674  0.24513557  0.97813101    -0.77600
C1811       C  0.87419951  0.24876274  0.96332641     0.83100
N1812       N  0.89739282  0.24273447  0.97596227    -0.79400
C1813       C  0.78977015  0.14455695  0.66110692     0.80600
N1814       N  0.82455305  0.16406613  0.66010871    -0.77700
C1815       C  0.84418334  0.14914933  0.65945343     0.83000
N1816       N  0.82874470  0.11442721  0.65903810    -0.77600
C1817       C  0.79398183  0.09470407  0.66020389     0.83100
N1818       N  0.77465475  0.10992117  0.66106364    -0.79400
O1819       O  0.49962419  0.26149910  0.50818770    -0.85000
O1820       O  0.51754347  0.21168666  0.51388348    -0.82000
C1821       C  0.51962406  0.18710069  0.52390211     0.98500
O1822       O  0.49583455  0.16526026  0.53946415    -0.82000
O1823       O  0.00748100  0.20363837  0.58854931    -0.84700
C1824       C  0.00853248  0.22693891  0.60443940     1.03000
O1825       O  0.99047215  0.24062750  0.59967583    -0.77500
O1826       O  0.50822592  0.27783115  0.55200502    -0.77600
C1827       C  0.51617595  0.28385982  0.52664170     1.03000
O1828       O  0.92847144  0.20875831  0.00543745    -0.85000
O1829       O  0.94648855  0.15883008  0.00564620    -0.82000
C1830       C  0.92257218  0.13573956  0.52047564     0.98500
O1831       O  0.92260224  0.13936138  0.54669715    -0.82100
O1832       O  0.93672534  0.17281496  0.59859631    -0.84700
C1833       C  0.91832704  0.18632654  0.60197520     1.03000
O1834       O  0.91970968  0.20803758  0.58505549    -0.77500
O1835       O  0.93555174  0.24701253  0.53784318    -0.77600
C1836       C  0.91997118  0.22904709  0.51661208     1.02900
Cr1837     Cr  0.97263991  0.21003165  0.51136591     1.93700
Cr1838     Cr  0.96561704  0.17298866  0.56654214     1.93200
Cr1839     Cr  0.96381218  0.24081589  0.56687658     1.39100
O1840       O  0.96733694  0.20814381  0.54836492    -1.22700
O1841       O  0.73532292  0.42803627  0.51115274    -0.85000
O1842       O  0.68596946  0.44614237  0.50624532    -0.82000
C1843       C  0.66330849  0.43005381  0.52480817     0.98500
O1844       O  0.66917607  0.43802664  0.55012584    -0.82000
O1845       O  0.70632328  0.45291134  0.59720348    -0.84700
C1846       C  0.71906582  0.43382791  0.60112372     1.03000
O1847       O  0.74209508  0.43464844  0.58486673    -0.77500
O1848       O  0.78191718  0.44870129  0.53600014    -0.77600
C1849       C  0.75935925  0.42502059  0.52105397     1.03000
O1850       O  0.78913101  0.49994800  0.00408418    -0.85000
O1851       O  0.73869129  0.51721544  0.00378496    -0.82000
C1852       C  0.71855867  0.02570944  0.51533036     0.98500
O1853       O  0.70150988  0.51080611  0.53720181    -0.82100
O1854       O  0.74088255  0.02427247  0.58422166    -0.84700
C1855       C  0.76159977  0.02371026  0.60118151     1.03000
O1856       O  0.77394187  0.00443892  0.59727440    -0.77500
O1857       O  0.80804097  0.52144045  0.54575341    -0.77600
C1858       C  0.81192775  0.02317145  0.51954281     1.02900
Cr1859     Cr  0.73753569  0.47315863  0.50931909     1.93700
Cr1860     Cr  0.70702919  0.48127647  0.56540222     1.93200
Cr1861     Cr  0.77382166  0.47746599  0.56416151     1.39100
O1862       O  0.73920706  0.47737106  0.54634385    -1.22700
O1863       O  0.68393515  0.18159111  0.50746447    -0.85000
O1864       O  0.73396420  0.24937963  0.51320657    -0.82000
C1865       C  0.75809130  0.27658060  0.52358898     0.98500
O1866       O  0.78007830  0.27558052  0.53900123    -0.82000
O1867       O  0.74168750  0.24988490  0.58837451    -0.84700
C1868       C  0.71846475  0.22779754  0.60435374     1.03000
O1869       O  0.70406947  0.19592618  0.59895922    -0.77500
O1870       O  0.66754919  0.17630764  0.55128686    -0.77600
C1871       C  0.66194111  0.17785162  0.52598055     1.03000
O1872       O  0.73671603  0.16313886  0.00492439    -0.85000
O1873       O  0.78701706  0.23146434  0.00493161    -0.82000
C1874       C  0.81006470  0.23135023  0.51969058     0.98500
O1875       O  0.80617629  0.22859090  0.54588377    -0.82100
O1876       O  0.77173808  0.21022246  0.59748227    -0.84700
C1877       C  0.75701398  0.17830768  0.60118902     1.03000
O1878       O  0.73574996  0.15729965  0.58397854    -0.77500
O1879       O  0.69693000  0.13285857  0.53656291    -0.77600
C1880       C  0.71560117  0.13456112  0.51573215     1.02900
Cr1881     Cr  0.73556840  0.20623217  0.51063943     1.93700
Cr1882     Cr  0.77227294  0.23827723  0.56582845     1.93200
Cr1883     Cr  0.70363914  0.16836065  0.56588622     1.39100
O1884       O  0.73702844  0.20410111  0.54759806    -1.22700
C1885       C  0.71074050  0.10284821  0.50207885     0.80600
N1886       N  0.71665098  0.07984306  0.51553848    -0.77700
C1887       C  0.71283710  0.05139676  0.50158210     0.83000
N1888       N  0.70179741  0.04544636  0.97475590    -0.77600
C1889       C  0.69477702  0.06769112  0.96170058     0.83100
N1890       N  0.69957708  0.09638302  0.97541357    -0.79400
C1891       C  0.76056708  0.30911616  0.51808229    -0.18100
C1892       C  0.76153567  0.33624623  0.51536662     0.05900
C1893       C  0.76160260  0.36772752  0.51447939     0.07800
C1894       C  0.76092433  0.39421519  0.51598502    -0.19000
C1895       C  0.54921453  0.18354361  0.51782180    -0.18100
C1896       C  0.57425920  0.18028797  0.51534533     0.05900
C1897       C  0.60413390  0.17721709  0.51551146     0.07800
C1898       C  0.63024886  0.17618511  0.51851064    -0.19000
C1899       C  0.54497256  0.31672861  0.51889451    -0.18100
C1900       C  0.57081409  0.34423076  0.51531805     0.05900
C1901       C  0.60248844  0.37574894  0.51466618     0.07800
C1902       C  0.63022281  0.40152143  0.51736220    -0.19000
C1903       C  0.77190592  0.15784442  0.64676626    -0.12900
C1904       C  0.76314218  0.16656204  0.62655678    -0.14500
C1905       C  0.77018364  0.04357864  0.62619345    -0.12900
C1906       C  0.77938743  0.06277357  0.64585745    -0.14500
C1907       C  0.87643974  0.16736587  0.64528778    -0.12900
C1908       C  0.89683400  0.17764391  0.62625741    -0.14500
C1909       C  0.96467429  0.06876184  0.68503345    -0.18100
C1910       C  0.93698786  0.04317080  0.68161298     0.05900
C1911       C  0.90513756  0.51185545  0.68137107     0.07800
C1912       C  0.87910579  0.48438159  0.68437465    -0.19000
C1913       C  0.88539674  0.35255745  0.68237159    -0.18100
C1914       C  0.91136697  0.35095020  0.68052679     0.05900
C1915       C  0.94236580  0.35014388  0.68136160     0.07800
C1916       C  0.96927874  0.35076919  0.68430577    -0.19000
C1917       C  0.60269449  0.48151402  0.68577947    -0.18100
C1918       C  0.60220615  0.50797219  0.68293378     0.05900
C1919       C  0.60007398  0.03843570  0.68271039     0.07800
C1920       C  0.59759362  0.06397269  0.68492466    -0.19000
C1921       C  0.60247691  0.21509670  0.79318831    -0.12900
C1922       C  0.61252705  0.23521703  0.81227234    -0.14500
C1923       C  0.73534076  0.34349528  0.79302108    -0.12900
C1924       C  0.71595577  0.33382851  0.81270331    -0.14500
C1925       C  0.61902584  0.33805267  0.81372785    -0.12900
C1926       C  0.61032262  0.34673273  0.79345210    -0.14500
C1927       C  0.79304809  0.23240401  0.85195171    -0.18100
C1928       C  0.76576455  0.20628334  0.84858947     0.05900
C1929       C  0.73467017  0.17420275  0.84820385     0.07800
C1930       C  0.70921445  0.14624220  0.85114055    -0.19000
C1931       C  0.92601731  0.14169981  0.85136890    -0.18100
C1932       C  0.92612874  0.16842738  0.84901253     0.05900
C1933       C  0.92512395  0.19933567  0.84867443     0.07800
C1934       C  0.92368323  0.22536725  0.85062034    -0.19000
C1935       C  0.79654985  0.00779772  0.85242800    -0.18100
C1936       C  0.77007590  0.00813886  0.84922421     0.05900
C1937       C  0.73970535  0.01038307  0.84855868     0.07800
C1938       C  0.71422759  0.01301206  0.85051288    -0.19000
C1939       C  0.94239760  0.39509144  0.97960276    -0.12900
C1940       C  0.93286125  0.37603111  0.95986146    -0.14500
C1941       C  0.54243019  0.49699302  0.97838499    -0.12900
C1942       C  0.56270591  0.00696407  0.95927103    -0.14500
C1943       C  0.94052252  0.49305672  0.98060629    -0.12900
C1944       C  0.93191340  0.00195288  0.96040723    -0.14500
C1945       C  0.55892065  0.56461046  0.33611206     0.80600
N1946       N  0.56464112  0.57589824  0.30930622    -0.77700
C1947       C  0.54287205  0.58413545  0.29698749     0.83000
N1948       N  0.51495463  0.58048477  0.31153594    -0.77600
C1949       C  0.50856078  0.56900673  0.33825127     0.83100
N1950       N  0.53113001  0.56170990  0.35084011    -0.79400
C1951       C  0.50607389  0.88062367  0.33944142     0.80600
N1952       N  0.53028440  0.90895873  0.35370651    -0.77700
C1953       C  0.55931055  0.93316435  0.34005703     0.83000
N1954       N  0.56397005  0.92834136  0.31264345    -0.77600
C1955       C  0.54017042  0.90036454  0.29838709     0.83100
N1956       N  0.51129836  0.87658669  0.31188393    -0.79400
C1957       C  0.95723818  0.97849832  0.49490226     0.80600
N1958       N  0.94059070  0.94376702  0.49500990    -0.77700
C1959       C  0.95845870  0.92702384  0.49396811     0.83000
N1960       N  0.99329897  0.94530161  0.49251111    -0.77600
C1961       C  0.51026180  0.98010416  0.49280138     0.83100
N1962       N  0.99207728  0.99654534  0.49362683    -0.79400
O1963       O  0.85066247  0.51419042  0.34126937    -0.85000
O1964       O  0.90026285  0.58211595  0.34649825    -0.82000
C1965       C  0.92430055  0.60951572  0.35666750     0.98500
O1966       O  0.94675181  0.60897526  0.37178459    -0.82000
O1967       O  0.90908583  0.58398788  0.42164313    -0.84700
C1968       C  0.88584638  0.56187800  0.43761611     1.03000
O1969       O  0.87169160  0.52999324  0.43238801    -0.77500
O1970       O  0.83454800  0.50902649  0.38514809    -0.77600
C1971       C  0.82864485  0.51020728  0.35984906     1.03000
O1972       O  0.90387158  0.49642852  0.33877600    -0.85000
O1973       O  0.95385897  0.56482319  0.33796949    -0.82000
C1974       C  0.97705640  0.56486645  0.35264012     0.98500
O1975       O  0.97335527  0.56240222  0.37887725    -0.82100
O1976       O  0.93971991  0.54497408  0.43090875    -0.84700
C1977       C  0.92529056  0.51316234  0.43496804     1.03000
O1978       O  0.90392278  0.99175865  0.41801034    -0.77500
O1979       O  0.86470601  0.96620391  0.37085297    -0.77600
C1980       C  0.88305137  0.96791484  0.34979714     1.02900
Cr1981     Cr  0.90237039  0.53928436  0.34415195     1.93700
Cr1982     Cr  0.93957587  0.57225861  0.39895899     1.93200
Cr1983     Cr  0.87126899  0.50200055  0.39977425     1.39100
O1984       O  0.90423674  0.53765954  0.38112332    -1.22700
O1985       O  0.89746906  0.75862805  0.34613647    -0.85000
O1986       O  0.84850166  0.77732749  0.34080765    -0.82000
C1987       C  0.82595643  0.76121488  0.35942173     0.98500
O1988       O  0.83191160  0.76936915  0.38471467    -0.82000
O1989       O  0.86942683  0.78539084  0.43199191    -0.84700
C1990       C  0.88264010  0.76681302  0.43649194     1.03000
O1991       O  0.90526301  0.76706026  0.42009397    -0.77500
O1992       O  0.94419986  0.77955488  0.37093878    -0.77600
C1993       C  0.92166663  0.75583205  0.35598769     1.03000
O1994       O  0.95151586  0.82988964  0.33806231    -0.85000
O1995       O  0.90182234  0.84804597  0.33769644    -0.82000
C1996       C  0.88193042  0.85700325  0.34898031     0.98500
O1997       O  0.86442928  0.84218230  0.37075186    -0.82100
O1998       O  0.90370505  0.85635661  0.41786756    -0.84700
C1999       C  0.92454020  0.85613804  0.43488459     1.03000
O2000       O  0.93716869  0.83708597  0.43114115    -0.77500
O2001       O  0.97069434  0.85250195  0.37937500    -0.77600
C2002       C  0.97449007  0.85337906  0.35316513     1.02900
Cr2003     Cr  0.90004154  0.80382936  0.34370597     1.93700
Cr2004     Cr  0.86983725  0.81300011  0.39954886     1.93200
Cr2005     Cr  0.93665873  0.80918616  0.39857159     1.39100
O2006       O  0.90192264  0.80870834  0.38069112    -1.22700
O2007       O  0.66452240  0.59054809  0.34041889    -0.85000
O2008       O  0.68187694  0.54043085  0.34592890    -0.82000
C2009       C  0.68422569  0.51609433  0.35613055     0.98500
O2010       O  0.66044169  0.49425214  0.37165635    -0.82000
O2011       O  0.67353362  0.53392830  0.42015192    -0.84700
C2012       C  0.67476253  0.55739480  0.43593443     1.03000
O2013       O  0.65594846  0.57035012  0.43172385    -0.77500
O2014       O  0.67272601  0.60728346  0.38420059    -0.77600
C2015       C  0.68073807  0.61314615  0.35883467     1.03000
O2016       O  0.59303107  0.53839087  0.33803243    -0.85000
O2017       O  0.61008426  0.48764152  0.33864587    -0.82000
C2018       C  0.58654514  0.96466708  0.35391037     0.98500
O2019       O  0.58740055  0.96853686  0.38013224    -0.82100
O2020       O  0.60300759  0.00289794  0.43161395    -0.84700
C2021       C  0.58407007  0.51579941  0.43490942     1.03000
O2022       O  0.58485253  0.53708223  0.41782409    -0.77500
O2023       O  0.60026738  0.57632265  0.37077752    -0.77600
C2024       C  0.58483765  0.55884321  0.34938035     1.02900
Cr2025     Cr  0.63700580  0.53905318  0.34378650     1.93700
Cr2026     Cr  0.63102115  0.50262904  0.39909317     1.93200
Cr2027     Cr  0.62869843  0.57012271  0.39937607     1.39100
O2028       O  0.63218719  0.53747725  0.38079682    -1.22700
C2029       C  0.87762070  0.88364111  0.33522907     0.80600
N2030       N  0.88160088  0.91194686  0.34951671    -0.77700
C2031       C  0.87797803  0.93633078  0.33591163     0.83000
N2032       N  0.86893140  0.93147835  0.30872590    -0.77600
C2033       C  0.86399734  0.90304417  0.29459588     0.83100
N2034       N  0.86874684  0.87932638  0.30783142    -0.79400
C2035       C  0.72808088  0.90022768  0.16807084     0.80600
N2036       N  0.73289749  0.90937531  0.14069848    -0.77700
C2037       C  0.70958089  0.91458393  0.12735516     0.83000
N2038       N  0.68096357  0.90980123  0.14136533    -0.77600
C2039       C  0.67561009  0.90049558  0.16856035     0.83100
N2040       N  0.69966367  0.89643759  0.18225940    -0.79400
C2041       C  0.54617185  0.71931972  0.17000681     0.80600
N2042       N  0.03528019  0.71406736  0.14313039    -0.77700
C2043       C  0.02755972  0.73623508  0.13079041     0.83000
N2044       N  0.03130887  0.76400549  0.14537045    -0.77600
C2045       C  0.54241620  0.76994799  0.17211067     0.83100
N2046       N  0.54922640  0.74705236  0.18473631    -0.79400
C2047       C  0.63297836  0.82087762  0.32819526     0.80600
N2048       N  0.61424511  0.78611514  0.32725425    -0.77700
C2049       C  0.63004240  0.76731520  0.32648497     0.83000
N2050       N  0.66488641  0.78357983  0.32594409    -0.77600
C2051       C  0.68384826  0.81833869  0.32712798     0.83100
N2052       N  0.66773938  0.83681903  0.32809599    -0.79400
O2053       O  0.52906261  0.87759483  0.17997260    -0.85000
O2054       O  0.59680550  0.92769701  0.17437920    -0.82000
C2055       C  0.60076676  0.94954030  0.19301070     0.98500
O2056       O  0.60240834  0.94361519  0.21824750    -0.82000
O2057       O  0.58192754  0.90647282  0.26572386    -0.84700
C2058       C  0.54997753  0.89232136  0.27109130     1.03000
O2059       O  0.52786323  0.86933880  0.25512561    -0.77500
O2060       O  0.50247769  0.83129788  0.20569368    -0.77600
C2061       C  0.00170798  0.85331745  0.19016274     1.03000
O2062       O  0.54700512  0.82464429  0.17158308    -0.85000
O2063       O  0.61533816  0.87491616  0.17156545    -0.82000
C2064       C  0.64390153  0.89561781  0.18243277     0.98500
O2065       O  0.64558035  0.91383045  0.20347868    -0.82100
O2066       O  0.62025099  0.87443959  0.25080047    -0.84700
C2067       C  0.59894126  0.85319550  0.26803819     1.03000
O2068       O  0.56704020  0.83882903  0.26432529    -0.77500
O2069       O  0.54924716  0.80506514  0.21259536    -0.77600
C2070       C  0.54678113  0.80141948  0.18638290     1.02900
Cr2071     Cr  0.57220582  0.87601950  0.17741311     1.93700
Cr2072     Cr  0.60977400  0.90703827  0.23273039     1.93200
Cr2073     Cr  0.53948434  0.83880963  0.23257558     1.39100
O2074       O  0.57400819  0.87410005  0.21437534    -1.22700
O2075       O  0.57028712  0.59645727  0.18025086    -0.85000
O2076       O  0.52022306  0.61401529  0.17454589    -0.82000
C2077       C  0.99751881  0.59733153  0.19290568     0.98500
O2078       O  0.50311464  0.60497838  0.21830351    -0.82000
O2079       O  0.53951572  0.62201860  0.26613269    -0.84700
C2080       C  0.55293782  0.60373772  0.27081226     1.03000
O2081       O  0.57660626  0.60506460  0.25505036    -0.77500
O2082       O  0.61617701  0.61754523  0.20621119    -0.77600
C2083       C  0.59449246  0.59395650  0.19058562     1.03000
O2084       O  0.62313035  0.66791870  0.17262298    -0.85000
O2085       O  0.57249295  0.68527979  0.17211298    -0.82000
C2086       C  0.55170218  0.69320683  0.18329235     0.98500
O2087       O  0.53381768  0.67745444  0.20459071    -0.82100
O2088       O  0.57246545  0.69284401  0.25188223    -0.84700
C2089       C  0.59397903  0.69394557  0.26884973     1.03000
O2090       O  0.60747512  0.67555542  0.26547140    -0.77500
O2091       O  0.64205814  0.69076185  0.21388727    -0.77600
C2092       C  0.64603217  0.69151478  0.18766203     1.02900
Cr2093     Cr  0.57170267  0.64128781  0.17796085     1.93700
Cr2094     Cr  0.53989298  0.64907118  0.23345225     1.93200
Cr2095     Cr  0.60786455  0.64729970  0.23332916     1.39100
O2096       O  0.57296529  0.64593484  0.21499534    -1.22700
O2097       O  0.83477831  0.92886040  0.17318762    -0.85000
O2098       O  0.85280430  0.87952545  0.17838526    -0.82000
C2099       C  0.85517360  0.85498532  0.18797551     0.98500
O2100       O  0.83125364  0.83251793  0.20296727    -0.82000
O2101       O  0.84466216  0.87158764  0.25189841    -0.84700
C2102       C  0.84532126  0.89437351  0.26819611     1.03000
O2103       O  0.82656931  0.90751633  0.26410939    -0.77500
O2104       O  0.84174962  0.94532405  0.21704476    -0.77600
C2105       C  0.85034345  0.95136140  0.19178307     1.03000
O2106       O  0.76378901  0.87620990  0.17026542    -0.85000
O2107       O  0.78115161  0.82606971  0.17070659    -0.82000
C2108       C  0.75760247  0.80314676  0.18599553     0.98500
O2109       O  0.75855245  0.80681362  0.21221020    -0.82100
O2110       O  0.77472183  0.83990957  0.26404940    -0.84700
C2111       C  0.75547333  0.85228105  0.26799692     1.03000
O2112       O  0.75510924  0.87311235  0.25102834    -0.77500
O2113       O  0.76875329  0.91242390  0.20388463    -0.77600
C2114       C  0.75445014  0.89559247  0.18186326     1.02900
Cr2115     Cr  0.80776322  0.87743497  0.17618702     1.93700
Cr2116     Cr  0.80216384  0.84043099  0.23098058     1.93200
Cr2117     Cr  0.79835332  0.90711537  0.23222813     1.39100
O2118       O  0.80273293  0.87529938  0.21319400    -1.22700
C2119       C  0.67755393  0.71866013  0.17353438     0.80600
N2120       N  0.68237095  0.71392214  0.14612564    -0.77700
C2121       C  0.71044173  0.73759244  0.13166778     0.83000
N2122       N  0.73430336  0.76641110  0.14494943    -0.77600
C2123       C  0.73024610  0.77170580  0.17248199     0.83100
N2124       N  0.70182977  0.74763102  0.18695130    -0.79400
C2125       C  0.89583302  0.60438163  0.00628440     0.80600
N2126       N  0.86720484  0.57969564  0.02013748    -0.77700
C2127       C  0.84341267  0.55105303  0.00605298     0.83000
N2128       N  0.84884942  0.54725921  0.47863944    -0.77600
C2129       C  0.87717631  0.57139755  0.46477391     0.83100
N2130       N  0.90064109  0.59989714  0.47868808    -0.76700
C2131       C  0.89319616  0.73358936  0.00333235     0.80600
N2132       N  0.86538477  0.73043042  0.01821550    -0.77700
C2133       C  0.84154451  0.73562780  0.00531655     0.83000
N2134       N  0.84653596  0.74513451  0.47813075    -0.77600
C2135       C  0.87419868  0.74876110  0.46332635     0.83100
N2136       N  0.89739172  0.74273264  0.47596268    -0.79400
C2137       C  0.78976736  0.64455553  0.16110625     0.80600
N2138       N  0.82455020  0.66406500  0.16010688    -0.77700
C2139       C  0.84418086  0.64914863  0.15945137     0.83000
N2140       N  0.82874260  0.61442656  0.15903737    -0.77600
C2141       C  0.79397980  0.59470303  0.16020434     0.83100
N2142       N  0.77465228  0.60991973  0.16106403    -0.79400
O2143       O  0.49962415  0.76150032  0.00818558    -0.85000
O2144       O  0.51754367  0.71168752  0.01387971    -0.82000
C2145       C  0.51962507  0.68710211  0.02389865     0.98500
O2146       O  0.49583655  0.66526229  0.03946189    -0.82000
O2147       O  0.00747906  0.70363768  0.08854773    -0.84700
C2148       C  0.00852977  0.72693739  0.10443839     1.03000
O2149       O  0.99046953  0.74062613  0.09967475    -0.77500
O2150       O  0.50822876  0.77783191  0.05200293    -0.77600
C2151       C  0.51617758  0.78386077  0.02663944     1.03000
O2152       O  0.92847113  0.70875780  0.50543836    -0.85000
O2153       O  0.94648793  0.65882933  0.50564828    -0.82000
C2154       C  0.92257207  0.63574165  0.02047200     0.98500
O2155       O  0.92260190  0.63936304  0.04669346    -0.82100
O2156       O  0.93672294  0.67281426  0.09859309    -0.84700
C2157       C  0.91832416  0.68632540  0.10197167     1.03000
O2158       O  0.91970746  0.70803694  0.08505220    -0.77500
O2159       O  0.93555196  0.74701446  0.03784124    -0.77600
C2160       C  0.91997177  0.72904953  0.01660986     1.02900
Cr2161     Cr  0.97264031  0.71003405  0.01136360     1.93700
Cr2162     Cr  0.96561595  0.67298914  0.06653929     1.93200
Cr2163     Cr  0.96381089  0.74081613  0.06687496     1.39100
O2164       O  0.96733657  0.70814497  0.04836262    -1.22700
O2165       O  0.73532122  0.92803663  0.01115468    -0.85000
O2166       O  0.68597001  0.94614583  0.00624786    -0.82000
C2167       C  0.66330908  0.93005679  0.02481060     0.98500
O2168       O  0.66917692  0.93802900  0.05012838    -0.82000
O2169       O  0.70632422  0.95291257  0.09720592    -0.84700
C2170       C  0.71906604  0.93382845  0.10112585     1.03000
O2171       O  0.74209488  0.93464842  0.08486873    -0.77500
O2172       O  0.78191564  0.94869952  0.03600171    -0.77600
C2173       C  0.75935706  0.92501969  0.02105527     1.03000
O2174       O  0.78912975  0.99994679  0.50408486    -0.85000
O2175       O  0.73869158  0.01721649  0.50378719    -0.82000
C2176       C  0.71856054  0.52571050  0.01532929     0.98500
O2177       O  0.70151269  0.01080894  0.03720455    -0.82100
O2178       O  0.74088578  0.52427444  0.08422066    -0.84700
C2179       C  0.76160166  0.52371116  0.10118121     1.03000
O2180       O  0.77394353  0.50443966  0.09727414    -0.77500
O2181       O  0.80804286  0.02143954  0.04575521    -0.77600
C2182       C  0.81192891  0.52317295  0.01954200     1.02900
Cr2183     Cr  0.73753635  0.97315997  0.00932146     1.93700
Cr2184     Cr  0.70703103  0.98127842  0.06540495     1.93200
Cr2185     Cr  0.77382235  0.97746554  0.06416343     1.39100
O2186       O  0.73920821  0.97737213  0.04634625    -1.22700
O2187       O  0.68393628  0.68159071  0.00746192    -0.85000
O2188       O  0.73396439  0.74937989  0.01320471    -0.82000
C2189       C  0.75809082  0.77658103  0.02358759     0.98500
O2190       O  0.78007760  0.77558157  0.03900070    -0.82000
O2191       O  0.74168861  0.74988614  0.08837475    -0.84700
C2192       C  0.71846492  0.72779884  0.10435336     1.03000
O2193       O  0.70406789  0.69592763  0.09895767    -0.77500
O2194       O  0.66754955  0.67631064  0.05128380    -0.77600
C2195       C  0.66194188  0.67785287  0.02597709     1.03000
O2196       O  0.73671538  0.66313773  0.50492466    -0.85000
O2197       O  0.78701562  0.73146348  0.50493103    -0.82000
C2198       C  0.81006573  0.73135283  0.01968927     0.98500
O2199       O  0.80617705  0.72859265  0.04588244    -0.82100
O2200       O  0.77173838  0.71022254  0.09748118    -0.84700
C2201       C  0.75701217  0.67830763  0.10118859     1.03000
O2202       O  0.73574707  0.65729993  0.08397853    -0.77500
O2203       O  0.69692984  0.63286023  0.03656138    -0.77600
C2204       C  0.71560297  0.63456258  0.01573209     1.02900
Cr2205     Cr  0.73556959  0.70623308  0.01063828     1.93700
Cr2206     Cr  0.77227337  0.73827830  0.06582773     1.93200
Cr2207     Cr  0.70363817  0.66836234  0.06588466     1.39100
O2208       O  0.73702876  0.70410250  0.04759709    -1.22700
C2209       C  0.71074236  0.60284954  0.00207892     0.80600
N2210       N  0.71665392  0.57984478  0.01553808    -0.77700
C2211       C  0.71283935  0.55139823  0.00158148     0.83000
N2212       N  0.70179673  0.54544647  0.47475426    -0.77600
C2213       C  0.69477703  0.56769206  0.46169960     0.83100
N2214       N  0.69957691  0.59638334  0.47541333    -0.79400
C2215       C  0.76056602  0.80911614  0.01808037    -0.18100
C2216       C  0.76153356  0.83624566  0.01536466     0.05900
C2217       C  0.76159944  0.86772642  0.01447822     0.07800
C2218       C  0.76092104  0.89421395  0.01598497    -0.19000
C2219       C  0.54921548  0.68354499  0.01781730    -0.18100
C2220       C  0.57426021  0.68028941  0.01534006     0.05900
C2221       C  0.60413502  0.67721846  0.01550597     0.07800
C2222       C  0.63024990  0.67618634  0.01850575    -0.19000
C2223       C  0.54497431  0.81672965  0.01889211    -0.18100
C2224       C  0.57081572  0.84423231  0.01531674     0.05900
C2225       C  0.60248963  0.87575128  0.01466686     0.07800
C2226       C  0.63022344  0.90152429  0.01736420    -0.19000
C2227       C  0.77190242  0.65784253  0.14676584    -0.12900
C2228       C  0.76313946  0.66656124  0.12655649    -0.14500
C2229       C  0.77018365  0.54357801  0.12619393    -0.12900
C2230       C  0.77938573  0.56277225  0.14585836    -0.14500
C2231       C  0.87643643  0.66736467  0.14528425    -0.12900
C2232       C  0.89683032  0.67764226  0.12625354    -0.14500
C2233       C  0.96467599  0.56876106  0.18503488    -0.18100
C2234       C  0.93698940  0.54317026  0.18161472     0.05900
C2235       C  0.90513888  0.01185585  0.18136949     0.07800
C2236       C  0.87910724  0.98438216  0.18437431    -0.19000
C2237       C  0.88539670  0.85255960  0.18237233    -0.18100
C2238       C  0.91136675  0.85095192  0.18052675     0.05900
C2239       C  0.94236534  0.85014482  0.18136087     0.07800
C2240       C  0.96927816  0.85076960  0.18430463    -0.19000
C2241       C  0.60269525  0.98151433  0.18578214    -0.18100
C2242       C  0.60220717  0.00797266  0.18293619     0.05900
C2243       C  0.60007788  0.53843900  0.18270798     0.07800
C2244       C  0.59759687  0.56397545  0.18492304    -0.19000
C2245       C  0.60247655  0.71509557  0.29319000    -0.12900
C2246       C  0.61252612  0.73521581  0.31227414    -0.14500
C2247       C  0.73533742  0.84349752  0.29302047    -0.12900
C2248       C  0.71595242  0.83383000  0.31270276    -0.14500
C2249       C  0.61902052  0.83804954  0.31373040    -0.12900
C2250       C  0.61031769  0.84672955  0.29345434    -0.14500
C2251       C  0.79304847  0.73240488  0.35194909    -0.18100
C2252       C  0.76576439  0.70628479  0.34858662     0.05900
C2253       C  0.73466945  0.67420452  0.34820106     0.07800
C2254       C  0.70921359  0.64624411  0.35113818    -0.19000
C2255       C  0.92602400  0.64170337  0.35136833    -0.18100
C2256       C  0.92613547  0.66843082  0.34901112     0.05900
C2257       C  0.92512908  0.69933811  0.34867222     0.07800
C2258       C  0.92368642  0.72536859  0.35061806    -0.19000
C2259       C  0.79655213  0.50780226  0.35242849    -0.18100
C2260       C  0.77007873  0.50814435  0.34922470     0.05900
C2261       C  0.73970845  0.51038893  0.34855918     0.07800
C2262       C  0.71423057  0.51301757  0.35051333    -0.19000
C2263       C  0.94239754  0.89508985  0.47960285    -0.12900
C2264       C  0.93286073  0.87602899  0.45986189    -0.14500
C2265       C  0.54243369  0.99699483  0.47838307    -0.12900
C2266       C  0.56270512  0.50696443  0.45926925    -0.14500
C2267       C  0.94052288  0.99305564  0.48060694    -0.12900
C2268       C  0.93191327  0.50195724  0.46041083    -0.14500
C2269       C  0.55891953  0.56461088  0.83611347     0.80600
N2270       N  0.56463957  0.57589820  0.80930755    -0.77700
C2271       C  0.54287008  0.58413483  0.79698878     0.83000
N2272       N  0.51495263  0.58048386  0.81153721    -0.77600
C2273       C  0.50855903  0.56900615  0.83825264     0.83100
N2274       N  0.53112876  0.56171005  0.85084162    -0.79400
C2275       C  0.50607420  0.88062342  0.83944122     0.80600
N2276       N  0.53028360  0.90895898  0.85370634    -0.77700
C2277       C  0.55930956  0.93316526  0.84005695     0.83000
N2278       N  0.56396987  0.92834215  0.81264359    -0.77600
C2279       C  0.54017111  0.90036474  0.79838726     0.83100
N2280       N  0.51129924  0.87658644  0.81188397    -0.79400
C2281       C  0.95723566  0.97849721  0.99490285     0.80600
N2282       N  0.94058972  0.94376596  0.99500902    -0.77700
C2283       C  0.95845919  0.92702431  0.99396763     0.83000
N2284       N  0.99329950  0.94530360  0.99251230    -0.77600
C2285       C  0.51026081  0.98010017  0.99280422     0.83100
N2286       N  0.99207483  0.99654580  0.99362919    -0.79400
O2287       O  0.85066133  0.51418952  0.84126767    -0.85000
O2288       O  0.90026105  0.58211486  0.84649651    -0.82000
C2289       C  0.92429831  0.60951468  0.85666593     0.98500
O2290       O  0.94675012  0.60897459  0.87178255    -0.82000
O2291       O  0.90908406  0.58398551  0.92164053    -0.84700
C2292       C  0.88584626  0.56187516  0.93761422     1.03000
O2293       O  0.87169285  0.52999040  0.93238633    -0.77500
O2294       O  0.83454750  0.50902309  0.88514679    -0.77600
C2295       C  0.82864361  0.51020465  0.85984802     1.03000
O2296       O  0.90387202  0.49642901  0.83877234    -0.85000
O2297       O  0.95385874  0.56482339  0.83796727    -0.82000
C2298       C  0.97705620  0.56486693  0.85263822     0.98500
O2299       O  0.97335488  0.56240268  0.87887525    -0.82100
O2300       O  0.93972019  0.54497319  0.93090585    -0.84700
C2301       C  0.92529298  0.51316133  0.93496370     1.03000
O2302       O  0.90391843  0.99175651  0.91801131    -0.77500
O2303       O  0.86470227  0.96620203  0.87085333    -0.77600
C2304       C  0.88304833  0.96791322  0.84979785     1.02900
Cr2305     Cr  0.90236971  0.53928400  0.84414941     1.93700
Cr2306     Cr  0.93957497  0.57225781  0.89895658     1.93200
Cr2307     Cr  0.87127011  0.50199861  0.89977146     1.39100
O2308       O  0.90423646  0.53765854  0.88112062    -1.22700
O2309       O  0.89746725  0.75862785  0.84613572    -0.85000
O2310       O  0.84850101  0.77732897  0.84080780    -0.82000
C2311       C  0.82595634  0.76121521  0.85942200     0.98500
O2312       O  0.83191211  0.76936864  0.88471502    -0.82000
O2313       O  0.86942807  0.78539095  0.93199179    -0.84700
C2314       C  0.88264082  0.76681264  0.93649137     1.03000
O2315       O  0.90526329  0.76705953  0.92009305    -0.77500
O2316       O  0.94419870  0.77955400  0.87093717    -0.77600
C2317       C  0.92166461  0.75583124  0.85598654     1.03000
O2318       O  0.95151527  0.82988907  0.83806158    -0.85000
O2319       O  0.90182321  0.84804696  0.83769701    -0.82000
C2320       C  0.88193073  0.85700354  0.84898079     0.98500
O2321       O  0.86442927  0.84218188  0.87075203    -0.82100
O2322       O  0.90370620  0.85635645  0.91786723    -0.84700
C2323       C  0.92454182  0.85613802  0.93488388     1.03000
O2324       O  0.93716973  0.83708543  0.93114040    -0.77500
O2325       O  0.97069403  0.85250134  0.87937415    -0.77600
C2326       C  0.97448926  0.85337883  0.85316428     1.02900
Cr2327     Cr  0.90004106  0.80382969  0.84370565     1.93700
Cr2328     Cr  0.86983781  0.81299988  0.89954888     1.93200
Cr2329     Cr  0.93665881  0.80918548  0.89857061     1.39100
O2330       O  0.90192271  0.80870811  0.88069074    -1.22700
O2331       O  0.66452216  0.59054787  0.84041993    -0.85000
O2332       O  0.68187535  0.54042932  0.84593064    -0.82000
C2333       C  0.68422336  0.51609242  0.85613255     0.98500
O2334       O  0.66043876  0.49425057  0.87165817    -0.82000
O2335       O  0.67353088  0.53392696  0.92015372    -0.84700
C2336       C  0.67476055  0.55739412  0.93593592     1.03000
O2337       O  0.65594726  0.57035022  0.93172497    -0.77500
O2338       O  0.67272598  0.60728339  0.88420154    -0.77600
C2339       C  0.68073814  0.61314593  0.85883563     1.03000
O2340       O  0.59303033  0.53839159  0.83803344    -0.85000
O2341       O  0.61008248  0.48764145  0.83864689    -0.82000
C2342       C  0.58654331  0.96466802  0.85391074     0.98500
O2343       O  0.58739852  0.96853693  0.88013269    -0.82100
O2344       O  0.60300617  0.00289592  0.93161559    -0.84700
C2345       C  0.58406862  0.51580130  0.93491057     1.03000
O2346       O  0.58485161  0.53708408  0.91782498    -0.77500
O2347       O  0.60026723  0.57632384  0.87077831    -0.77600
C2348       C  0.58483696  0.55884397  0.84938147     1.02900
Cr2349     Cr  0.63700466  0.53905294  0.84378771     1.93700
Cr2350     Cr  0.63101841  0.50262848  0.89909454     1.93200
Cr2351     Cr  0.62869781  0.57012342  0.89937699     1.39100
O2352       O  0.63218567  0.53747719  0.88079800    -1.22700
C2353       C  0.87762053  0.88364100  0.83522953     0.80600
N2354       N  0.88159896  0.91194592  0.84951740    -0.77700
C2355       C  0.87797590  0.93632959  0.83591224     0.83000
N2356       N  0.86893096  0.93147783  0.80872608    -0.77600
C2357       C  0.86399848  0.90304435  0.79459579     0.83100
N2358       N  0.86874819  0.87932680  0.80783153    -0.79400
C2359       C  0.72808078  0.90022558  0.66807030     0.80600
N2360       N  0.73289755  0.90937390  0.64069807    -0.77700
C2361       C  0.70958107  0.91458292  0.62735496     0.83000
N2362       N  0.68096358  0.90979986  0.64136520    -0.77600
C2363       C  0.67560983  0.90049346  0.66856011     0.83100
N2364       N  0.69966340  0.89643518  0.68225891    -0.79400
C2365       C  0.54617302  0.71931935  0.67000802     0.80600
N2366       N  0.03528116  0.71406863  0.64313155    -0.77700
C2367       C  0.02756085  0.73623644  0.63079163     0.83000
N2368       N  0.03130944  0.76400648  0.64537199    -0.77600
C2369       C  0.54241643  0.76994699  0.67211192     0.83100
N2370       N  0.54922668  0.74705151  0.68473769    -0.79400
C2371       C  0.63297982  0.82087960  0.82819624     0.80600
N2372       N  0.61424587  0.78611718  0.82725500    -0.77700
C2373       C  0.63004242  0.76731658  0.82648473     0.83000
N2374       N  0.66488641  0.78358050  0.82594352    -0.77600
C2375       C  0.68384898  0.81833932  0.82712793     0.83100
N2376       N  0.66774081  0.83682033  0.82809652    -0.79400
O2377       O  0.52906368  0.87759470  0.67997389    -0.85000
O2378       O  0.59680654  0.92769534  0.67437956    -0.82000
C2379       C  0.60076551  0.94953807  0.69301091     0.98500
O2380       O  0.60240663  0.94361303  0.71824781    -0.82000
O2381       O  0.58192849  0.90647191  0.76572464    -0.84700
C2382       C  0.54997849  0.89232118  0.77109187     1.03000
O2383       O  0.52786409  0.86933870  0.75512627    -0.77500
O2384       O  0.50247793  0.83129772  0.70569494    -0.77600
C2385       C  0.00170771  0.85331690  0.69016317     1.03000
O2386       O  0.54700383  0.82464249  0.67158445    -0.85000
O2387       O  0.61533752  0.87491284  0.67156637    -0.82000
C2388       C  0.64390113  0.89561562  0.68243280     0.98500
O2389       O  0.64557997  0.91382948  0.70347794    -0.82100
O2390       O  0.62025142  0.87443855  0.75080021    -0.84700
C2391       C  0.59894205  0.85319505  0.76803850     1.03000
O2392       O  0.56704084  0.83882850  0.76432618    -0.77500
O2393       O  0.54924647  0.80506367  0.71259669    -0.77600
C2394       C  0.54678043  0.80141799  0.68638423     1.02900
Cr2395     Cr  0.57220583  0.87601772  0.67741389     1.93700
Cr2396     Cr  0.60977404  0.90703714  0.73273052     1.93200
Cr2397     Cr  0.53948443  0.83880880  0.73257669     1.39100
O2398       O  0.57400824  0.87409863  0.71437604    -1.22700
O2399       O  0.57028535  0.59645589  0.68025206    -0.85000
O2400       O  0.52022217  0.61401534  0.67454608    -0.82000
C2401       C  0.99751754  0.59733212  0.69290787     0.98500
O2402       O  0.50311316  0.60497611  0.71830341    -0.82000
O2403       O  0.53951280  0.62201694  0.76613335    -0.84700
C2404       C  0.55293564  0.60373684  0.77081346     1.03000
O2405       O  0.57660464  0.60506432  0.75505207    -0.77500
O2406       O  0.61617484  0.61754391  0.70621306    -0.77600
C2407       C  0.59449067  0.59395528  0.69058712     1.03000
O2408       O  0.62312943  0.66791653  0.67262430    -0.85000
O2409       O  0.57249349  0.68527930  0.67211471    -0.82000
C2410       C  0.55170222  0.69320601  0.68329351     0.98500
O2411       O  0.53381578  0.67745230  0.70459068    -0.82100
O2412       O  0.57246166  0.69284229  0.75188305    -0.84700
C2413       C  0.59397612  0.69394515  0.76885027     1.03000
O2414       O  0.60747278  0.67555545  0.76547219    -0.77500
O2415       O  0.64205624  0.69076103  0.71388826    -0.77600
C2416       C  0.64603093  0.69151314  0.68766311     1.02900
Cr2417     Cr  0.57170172  0.64128673  0.67796194     1.93700
Cr2418     Cr  0.53989045  0.64906923  0.73345263     1.93200
Cr2419     Cr  0.60786262  0.64729907  0.73333054     1.39100
O2420       O  0.57296349  0.64593355  0.71499638    -1.22700
O2421       O  0.83477937  0.92885761  0.67318598    -0.85000
O2422       O  0.85280398  0.87952176  0.67838491    -0.82000
C2423       C  0.85517278  0.85498145  0.68797541     0.98500
O2424       O  0.83125325  0.83251510  0.70296806    -0.82000
O2425       O  0.84466318  0.87158680  0.75189853    -0.84700
C2426       C  0.84532292  0.89437352  0.76819560     1.03000
O2427       O  0.82657168  0.90751697  0.76410812    -0.77500
O2428       O  0.84175011  0.94532314  0.71704264    -0.77600
C2429       C  0.85034401  0.95135953  0.69178088     1.03000
O2430       O  0.76378955  0.87620826  0.67026469    -0.85000
O2431       O  0.78115110  0.82606701  0.67070710    -0.82000
C2432       C  0.75760225  0.80314437  0.68599636     0.98500
O2433       O  0.75855262  0.80681178  0.71221109    -0.82100
O2434       O  0.77472330  0.83990949  0.76405021    -0.84700
C2435       C  0.75547527  0.85228146  0.76799781     1.03000
O2436       O  0.75511110  0.87311252  0.75102901    -0.77500
O2437       O  0.76875318  0.91242177  0.70388414    -0.77600
C2438       C  0.75445031  0.89559052  0.68186264     1.02900
Cr2439     Cr  0.80776340  0.87743235  0.67618659     1.93700
Cr2440     Cr  0.80216441  0.84042977  0.73098110     1.93200
Cr2441     Cr  0.79835445  0.90711461  0.73222726     1.39100
O2442       O  0.80273351  0.87529784  0.71319372    -1.22700
C2443       C  0.67755287  0.71865811  0.67353537     0.80600
N2444       N  0.68236958  0.71391996  0.64612654    -0.77700
C2445       C  0.71044037  0.73759007  0.63166855     0.83000
N2446       N  0.73430248  0.76640844  0.64495025    -0.77600
C2447       C  0.73024560  0.77170324  0.67248297     0.83100
N2448       N  0.70182912  0.74762880  0.68695226    -0.79400
C2449       C  0.89583149  0.60438221  0.50628695     0.80600
N2450       N  0.86720302  0.57969583  0.52013945    -0.77700
C2451       C  0.84341094  0.55105395  0.50605409     0.83000
N2452       N  0.84885075  0.54725700  0.97863849    -0.77600
C2453       C  0.87717724  0.57139501  0.96477232     0.83100
N2454       N  0.90064215  0.59989542  0.97868565    -0.76700
C2455       C  0.89319529  0.73358971  0.50333328     0.80600
N2456       N  0.86538349  0.73043038  0.51821611    -0.77700
C2457       C  0.84154321  0.73562772  0.50531690     0.83000
N2458       N  0.84653690  0.74513438  0.97813032    -0.77600
C2459       C  0.87419935  0.74876058  0.96332566     0.83100
N2460       N  0.89739233  0.74273201  0.97596176    -0.79400
C2461       C  0.78976743  0.64455764  0.66110669     0.80600
N2462       N  0.82455035  0.66406647  0.66010805    -0.77700
C2463       C  0.84418028  0.64914925  0.65945134     0.83000
N2464       N  0.82874117  0.61442708  0.65903502    -0.77600
C2465       C  0.79397830  0.59470430  0.66020155     0.83100
N2466       N  0.77465159  0.60992179  0.66106277    -0.79400
O2467       O  0.49962458  0.76149733  0.50818858    -0.85000
O2468       O  0.51754359  0.71168447  0.51388411    -0.82000
C2469       C  0.51962391  0.68709813  0.52390228     0.98500
O2470       O  0.49583489  0.66525822  0.53946498    -0.82000
O2471       O  0.00748006  0.70363892  0.58854892    -0.84700
C2472       C  0.00853115  0.72693903  0.60443937     1.03000
O2473       O  0.99047110  0.74062792  0.59967551    -0.77500
O2474       O  0.50822677  0.77782952  0.55200581    -0.77600
C2475       C  0.51617659  0.78385817  0.52664249     1.03000
O2476       O  0.92847226  0.70875813  0.00543699    -0.85000
O2477       O  0.94648928  0.65882990  0.00564568    -0.82000
C2478       C  0.92257077  0.63574162  0.52047488     0.98500
O2479       O  0.92260115  0.63936324  0.54669639    -0.82100
O2480       O  0.93672430  0.67281625  0.59859560    -0.84700
C2481       C  0.91832558  0.68632746  0.60197403     1.03000
O2482       O  0.91970853  0.70803852  0.58505420    -0.77500
O2483       O  0.93555137  0.74701452  0.53784240    -0.77600
C2484       C  0.91997092  0.72904954  0.51661103     1.02900
Cr2485     Cr  0.97263913  0.71003324  0.51136501     1.93700
Cr2486     Cr  0.96561606  0.67298984  0.56654141     1.93200
Cr2487     Cr  0.96381145  0.74081706  0.56687595     1.39100
O2488       O  0.96733630  0.70814520  0.54836413    -1.22700
O2489       O  0.73532056  0.92803601  0.51115436    -0.85000
O2490       O  0.68596833  0.94614375  0.50624834    -0.82000
C2491       C  0.66330788  0.93005504  0.52481151     0.98500
O2492       O  0.66917630  0.93802789  0.55012912    -0.82000
O2493       O  0.70632441  0.95291199  0.59720604    -0.84700
C2494       C  0.71906640  0.93382803  0.60112581     1.03000
O2495       O  0.74209535  0.93464831  0.58486855    -0.77500
O2496       O  0.78191536  0.94869936  0.53600090    -0.77600
C2497       C  0.75935664  0.92501935  0.52105474     1.03000
O2498       O  0.78913127  0.99994691  0.00408627    -0.85000
O2499       O  0.73869435  0.01721810  0.00378789    -0.82000
C2500       C  0.71855869  0.52570867  0.51532821     0.98500
O2501       O  0.70151120  0.01080789  0.53720482    -0.82100
O2502       O  0.74088021  0.52427191  0.58421855    -0.84700
C2503       C  0.76159680  0.52371009  0.60117922     1.03000
O2504       O  0.77393918  0.50443884  0.59727310    -0.77500
O2505       O  0.80804190  0.02143912  0.54575382    -0.77600
C2506       C  0.81192733  0.52317292  0.51954249     1.02900
Cr2507     Cr  0.73753479  0.97315891  0.50932102     1.93700
Cr2508     Cr  0.70703047  0.98127759  0.56540510     1.93200
Cr2509     Cr  0.77382212  0.97746529  0.56416260     1.39100
O2510       O  0.73920747  0.97737149  0.54634586    -1.22700
O2511       O  0.68393435  0.68158785  0.50746188    -0.85000
O2512       O  0.73396128  0.74937785  0.51320410    -0.82000
C2513       C  0.75808753  0.77657933  0.52358672     0.98500
O2514       O  0.78007441  0.77558040  0.53899996    -0.82000
O2515       O  0.74168517  0.74988442  0.58837425    -0.84700
C2516       C  0.71846270  0.72779671  0.60435349     1.03000
O2517       O  0.70406651  0.69592550  0.59895782    -0.77500
O2518       O  0.66754757  0.67630620  0.55128394    -0.77600
C2519       C  0.66193966  0.67784847  0.52597728     1.03000
O2520       O  0.73671634  0.66313871  0.00492522    -0.85000
O2521       O  0.78701744  0.73146431  0.00493130    -0.82000
C2522       C  0.81006408  0.73135252  0.51968924     0.98500
O2523       O  0.80617534  0.72859288  0.54588241    -0.82100
O2524       O  0.77173706  0.71022327  0.59748093    -0.84700
C2525       C  0.75701252  0.67830857  0.60118838     1.03000
O2526       O  0.73574838  0.65730010  0.58397817    -0.77500
O2527       O  0.69693032  0.63285845  0.53656157    -0.77600
C2528       C  0.71560288  0.63456141  0.51573168     1.02900
Cr2529     Cr  0.73556761  0.70623146  0.51063795     1.93700
Cr2530     Cr  0.77227089  0.73827774  0.56582726     1.93200
Cr2531     Cr  0.70363761  0.66836027  0.56588472     1.39100
O2532       O  0.73702693  0.70410105  0.54759680    -1.22700
C2533       C  0.71074265  0.60284878  0.50207815     0.80600
N2534       N  0.71665281  0.57984318  0.51553746    -0.77700
C2535       C  0.71283823  0.55139682  0.50158066     0.83000
N2536       N  0.70179651  0.54544697  0.97475544    -0.77600
C2537       C  0.69477548  0.56769175  0.96170093     0.83100
N2538       N  0.69957536  0.59638319  0.97541449    -0.79400
C2539       C  0.76056262  0.80911436  0.51807918    -0.18100
C2540       C  0.76153113  0.83624434  0.51536357     0.05900
C2541       C  0.76159835  0.86772579  0.51447748     0.07800
C2542       C  0.76092065  0.89421364  0.51598446    -0.19000
C2543       C  0.54921331  0.68353980  0.51782032    -0.18100
C2544       C  0.57425732  0.68028329  0.51534224     0.05900
C2545       C  0.60413192  0.67721219  0.51550714     0.07800
C2546       C  0.63024710  0.67618062  0.51850629    -0.19000
C2547       C  0.54497315  0.81672721  0.51889535    -0.18100
C2548       C  0.57081446  0.84422990  0.51531979     0.05900
C2549       C  0.60248830  0.87574891  0.51466926     0.07800
C2550       C  0.63022214  0.90152209  0.51736585    -0.19000
C2551       C  0.77190341  0.65784567  0.64676640    -0.12900
C2552       C  0.76314024  0.66656342  0.62655665    -0.14500
C2553       C  0.77017952  0.54357874  0.62619096    -0.12900
C2554       C  0.77938303  0.56277391  0.64585480    -0.14500
C2555       C  0.87643680  0.66736612  0.64528579    -0.12900
C2556       C  0.89683167  0.67764443  0.62625579    -0.14500
C2557       C  0.96467414  0.56876179  0.68503785    -0.18100
C2558       C  0.93698737  0.54317114  0.68161775     0.05900
C2559       C  0.90513858  0.01185448  0.68136673     0.07800
C2560       C  0.87910736  0.98438037  0.68437145    -0.19000
C2561       C  0.88539496  0.85255448  0.68237164    -0.18100
C2562       C  0.91136487  0.85094674  0.68052576     0.05900
C2563       C  0.94236404  0.85014094  0.68135977     0.07800
C2564       C  0.96927757  0.85076747  0.68430395    -0.19000
C2565       C  0.60269201  0.98151119  0.68578220    -0.18100
C2566       C  0.60220283  0.00796904  0.68293649     0.05900
C2567       C  0.60007722  0.53843863  0.68270851     0.07800
C2568       C  0.59759581  0.56397478  0.68492407    -0.19000
C2569       C  0.60247445  0.71509650  0.79318986    -0.12900
C2570       C  0.61252509  0.73521737  0.81227360    -0.14500
C2571       C  0.73533917  0.84349800  0.79302129    -0.12900
C2572       C  0.71595348  0.83383040  0.81270315    -0.14500
C2573       C  0.61902237  0.83805179  0.81373138    -0.12900
C2574       C  0.61031914  0.84673059  0.79345490    -0.14500
C2575       C  0.79304850  0.73240500  0.85194943    -0.18100
C2576       C  0.76576457  0.70628465  0.84858715     0.05900
C2577       C  0.73466979  0.67420421  0.84820183     0.07800
C2578       C  0.70921394  0.64624377  0.85113909    -0.19000
C2579       C  0.92602057  0.64170190  0.85136742    -0.18100
C2580       C  0.92613131  0.66842896  0.84901038     0.05900
C2581       C  0.92512495  0.69933624  0.84867131     0.07800
C2582       C  0.92368312  0.72536712  0.85061699    -0.19000
C2583       C  0.79654986  0.50779864  0.85242867    -0.18100
C2584       C  0.77007586  0.50814030  0.84922623     0.05900
C2585       C  0.73970555  0.51038529  0.84856160     0.07800
C2586       C  0.71422797  0.51301471  0.85051577    -0.19000
C2587       C  0.94240007  0.89509075  0.97960168    -0.12900
C2588       C  0.93286345  0.87602969  0.95986084    -0.14500
C2589       C  0.54243288  0.99699052  0.97838613    -0.12900
C2590       C  0.56270425  0.50696774  0.95927062    -0.14500
C2591       C  0.94051988  0.99305400  0.98060750    -0.12900
C2592       C  0.93191608  0.50195556  0.96040598    -0.14500
loop_ 
_geom_bond_atom_site_label_1 
_geom_bond_atom_site_label_2 
_geom_bond_distance 
_geom_bond_site_symmetry_2 
_ccdc_geom_bond_type 
C1            N2   1.360       .  A
C1            N6   1.369       .  A
C1           C80   1.472       .  S
N2            C3   1.356       .  A
C3            N4   1.358       .  A
C3          C136   1.471       .  S
N4            C5   1.358       .  A
C5            N6   1.366       .  A
C5         C1326   1.486   1_455  S
C7            N8   1.370       .  A
C7           N12   1.361       .  A
C7         C1354   1.476   1_455  S
N8            C9   1.367       .  A
C9           N10   1.357       .  A
C9           C74   1.482       .  S
N10          C11   1.355       .  A
C11          N12   1.353       .  A
C11         C114   1.468       .  S
C13          N14   1.349       .  A
C13          N18   1.351       .  A
C13         C323   1.412       .  S
N14          C15   1.349       .  A
C15          N16   1.352       .  A
C15         C319   1.414       .  S
N16        C1313   1.351       .  A
C17        N1312   1.351   1_455  A
C17        N1314   1.350   1_455  A
C17         C321   1.418       .  S
N18        C1313   1.350       .  A
O19         Cr37   2.012       .  S
O19          C27   1.262       .  A
O20         Cr37   1.977       .  S
O20          C21   1.257       .  A
C21         C311   1.437       .  S
C21          O22   1.264       .  A
O22         Cr38   2.011       .  S
O23         Cr38   1.996       .  S
O23          C24   1.268       .  A
C24         C185   1.468       .  S
C24          O25   1.264       .  A
O25         Cr39   1.985       .  S
O26         Cr39   1.972       .  S
O26          C27   1.254       .  A
C27         C315   1.441       .  S
O28         Cr37   1.975   1_565  S
O28         C684   1.261       .  A
O29         Cr37   2.014       .  S
O29          C30   1.268       .  A
C30        C1301   1.486       .  S
C30          O31   1.264       .  A
O31         Cr38   2.007       .  S
O32         Cr38   1.980       .  S
O32          C33   1.254       .  A
C33         C324   1.419       .  S
C33         O682   1.257   1_545  A
O34        Cr687   1.968       .  S
O34         C681   1.257       .  A
O35        Cr687   2.015       .  S
O35          C36   1.267       .  A
C36          C87   1.470       .  S
C36         O676   1.261       .  A
Cr37         O40   1.779       .  S
Cr38         O40   1.786       .  S
Cr39        O682   1.968   1_545  S
Cr39        O683   2.015   1_545  S
Cr39         O40   1.777       .  S
O41         Cr59   1.983       .  S
O41          C49   1.257       .  A
O42         Cr59   2.005       .  S
O42          C43   1.261       .  A
C43         C307   1.437       .  S
C43          O44   1.254       .  A
O44         Cr60   1.971       .  S
O45         Cr60   1.999       .  S
O45          C46   1.268       .  A
C46         C191   1.469       .  S
C46          O47   1.267       .  A
O47         Cr61   1.987       .  S
O48         Cr61   2.005       .  S
O48          C49   1.261       .  A
C49         C314   1.437       .  S
O50         Cr59   2.010       .  S
O50          C58   1.269       .  A
O51         Cr59   1.975       .  S
O51          C52   1.260       .  A
C52          C85   1.474       .  S
C52          O53   1.269       .  A
O53         Cr60   2.020       .  S
O54         Cr60   1.972       .  S
O54          C55   1.257       .  A
C55         C320   1.420       .  S
C55          O56   1.253       .  A
O56         Cr61   1.979       .  S
O57         Cr61   1.993       .  S
O57          C58   1.262       .  A
C58        C1303   1.476       .  S
Cr59         O62   1.780       .  S
Cr60         O62   1.775       .  S
Cr61         O62   1.785       .  S
O63         Cr81   2.008       .  S
O63          C71   1.261       .  A
O64         Cr81   1.989       .  S
O64          C65   1.259       .  A
C65         C318   1.442       .  S
C65          O66   1.262   1_545  A
O66         Cr82   2.007   1_565  S
O67         Cr82   1.991       .  S
O67          C68   1.267       .  A
C68         C269   1.467       .  S
C68          O69   1.266       .  A
O69         Cr83   1.991       .  S
O70         Cr83   1.969       .  S
O70          C71   1.254       .  A
C71         C310   1.437       .  S
O72         Cr81   1.985       .  S
O72          C80   1.263       .  A
O73         Cr81   2.010   1_565  S
O73         C722   1.269       .  A
C74          O75   1.264       .  A
C74         O721   1.269       .  A
O75        Cr730   2.002       .  S
O76        Cr730   1.986       .  S
O76         C725   1.255       .  A
C77         C322   1.423       .  S
C77          O78   1.256       .  A
C77         O724   1.255       .  A
O78         Cr83   1.971       .  S
O79         Cr83   2.007       .  S
O79          C80   1.265       .  A
Cr81         O84   1.780       .  S
Cr82        O723   2.002   1_545  S
Cr82        O724   1.986       .  S
Cr82         O84   1.786       .  S
Cr83         O84   1.776       .  S
C85          N86   1.367       .  A
C85          N90   1.362       .  A
N86          C87   1.365       .  A
C87          N88   1.353       .  A
N88          C89   1.354       .  A
C89          N90   1.358       .  A
C89         C158   1.467       .  S
C91          N92   1.361       .  A
C91          N96   1.367       .  A
C91         C170   1.472       .  S
N92          C93   1.356       .  A
C93          N94   1.356       .  A
C93         C226   1.467       .  S
N94          C95   1.354       .  A
C95          N96   1.365       .  A
C95         C120   1.472       .  S
C97         N102   1.369       .  A
C97        N1394   1.361       .  A
C97         C142   1.474       .  S
N98          C99   1.357       .  A
N98        C1393   1.361       .  A
C99         N100   1.356       .  A
C99         C204   1.471       .  S
N100       C1397   1.357       .  A
C101        N102   1.366       .  A
C101       N1396   1.357       .  A
C101        C126   1.484       .  S
C103        N104   1.351       .  A
C103        N108   1.349       .  A
C103        C305   1.412       .  S
N104        C105   1.350       .  A
C105        N106   1.352       .  A
C105        C302   1.418       .  S
N106        C107   1.352       .  A
C107        N108   1.349       .  A
C107        C304   1.415       .  S
O109       Cr127   1.975       .  S
O109       C1413   1.256       .  A
O110       Cr127   2.014       .  S
O110        C111   1.263       .  A
C111        C297   1.444       .  S
C111        O112   1.254       .  A
O112       Cr128   1.973       .  S
O113       Cr128   1.987       .  S
O113        C114   1.264       .  A
C114        O115   1.268       .  A
O115       Cr129   1.994       .  S
O116       Cr129   2.010       .  S
O116       C1413   1.263       .  A
C117        C296   1.435       .  S
C117       O1405   1.256       .  A
C117       O1412   1.263       .  A
O118       Cr127   2.013       .  S
O118        C126   1.268       .  A
O119       Cr127   1.976       .  S
O119        C120   1.261       .  A
C120        O121   1.267       .  A
O121       Cr128   2.017       .  S
O122       Cr128   1.969       .  S
O122        C123   1.257       .  A
C123        C306   1.420       .  S
C123        O124   1.254       .  A
O124       Cr129   1.980       .  S
O125       Cr129   2.005       .  S
O125        C126   1.263       .  A
Cr127       O130   1.780       .  S
Cr128       O130   1.778       .  S
Cr129       O130   1.786       .  S
O131       Cr149   1.990       .  S
O131        C139   1.260       .  A
O132       Cr149   2.005       .  S
O132       C1429   1.261   1_455  A
C133        C289   1.436       .  S
C133       O1428   1.261       .  A
C133       O1430   1.254       .  A
O134       Cr150   1.971       .  S
O134       C1429   1.254   1_455  A
O135       Cr150   1.993       .  S
O135        C136   1.266       .  A
C136        O137   1.268       .  A
O137       Cr151   1.994       .  S
O138       Cr151   2.011       .  S
O138        C139   1.263       .  A
C139        C300   1.445       .  S
O140       Cr149   2.007       .  S
O140        C148   1.267       .  A
O141       Cr149   1.985       .  S
O141        C142   1.263       .  A
C142        O143   1.266       .  A
O143       Cr150   2.010       .  S
O144       Cr150   1.971       .  S
O144        C145   1.257       .  A
C145        C301   1.423       .  S
C145        O146   1.255       .  A
O146       Cr151   1.986       .  S
O147       Cr151   2.005       .  S
O147        C148   1.264       .  A
C148        C175   1.482       .  S
Cr149       O152   1.782       .  S
Cr150       O152   1.778       .  S
Cr151       O152   1.786       .  S
O153       Cr171   2.004       .  S
O153        C161   1.260       .  A
O154       Cr171   1.982       .  S
O154        C155   1.256       .  A
C155        C293   1.435       .  S
C155        O156   1.260       .  A
O156       Cr172   2.004       .  S
O157       Cr172   1.986       .  S
O157        C158   1.267       .  A
C158        O159   1.269       .  A
O159       Cr173   1.998       .  S
O160       Cr173   1.970       .  S
O160        C161   1.254       .  A
C161        C292   1.436       .  S
O162       Cr171   1.974       .  S
O162        C170   1.260       .  A
O163       Cr171   2.010       .  S
O163        C164   1.269       .  A
C164        C179   1.475       .  S
C164        O165   1.263       .  A
O165       Cr172   1.992       .  S
O166       Cr172   1.980       .  S
O166        C167   1.252       .  A
C167        C303   1.422       .  S
C167        O168   1.257       .  A
O168       Cr173   1.974       .  S
O169       Cr173   2.018       .  S
O169        C170   1.268       .  A
Cr171       O174   1.781       .  S
Cr172       O174   1.786       .  S
Cr173       O174   1.775       .  S
C175        N176   1.357       .  A
C175        N180   1.366       .  A
N176        C177   1.355       .  A
C177        N178   1.353       .  A
C177        C248   1.469       .  S
N178        C179   1.361       .  A
C179        N180   1.369       .  A
C181        N182   1.369       .  A
C181        N510   1.363   1_554  A
C181        C210   1.478       .  S
N182        C183   1.367       .  A
C183        N508   1.355   1_554  A
C183        C238   1.479       .  S
N184        C185   1.354       .  A
N184        C507   1.355       .  A
C185        N186   1.355       .  A
N186        C505   1.363       .  A
C187        N188   1.370       .  A
C187        N516   1.361   1_554  A
C187        C216   1.475       .  S
N188        C189   1.366       .  A
C189        N514   1.356   1_554  A
C189        C254   1.483       .  S
N190        C191   1.355       .  A
N190        C513   1.356       .  A
C191        N192   1.357       .  A
N192        C511   1.361       .  A
C193        N194   1.352       .  A
C193        N198   1.349       .  A
C193        C283   1.412       .  S
N194        C195   1.350       .  A
C195        N196   1.352       .  A
C195        C287   1.418       .  S
N196        C197   1.352       .  A
C197        N198   1.349       .  A
C197        C286   1.414       .  S
O199      Cr1513   2.006       .  S
O199        C207   1.260   1_655  A
O200      Cr1513   1.986   1_455  S
O200        C201   1.259       .  A
C201        C275   1.440       .  S
C201        O202   1.263   1_455  A
O202      Cr1514   2.008       .  S
O203       Cr218   1.991       .  S
O203        C204   1.267       .  A
C204        O205   1.267       .  A
O205       Cr219   1.998       .  S
O206      Cr1515   1.971   1_455  S
O206        C207   1.254       .  A
C207        C279   1.437       .  S
O208       Cr541   1.981       .  S
O208        C540   1.262       .  A
O209       Cr541   2.005       .  S
O209        C534   1.266       .  A
C210        O211   1.264       .  A
C210        O533   1.266       .  A
O211       Cr218   2.000       .  S
O212       Cr218   1.987       .  S
O212        C213   1.255       .  A
C213        C288   1.423       .  S
C213        O214   1.256       .  A
O214       Cr219   1.969       .  S
O215       Cr219   2.016       .  S
O215        C216   1.268       .  A
C216        O532   1.262       .  A
Cr217      O1495   2.006       .  S
Cr217      O1496   1.986       .  S
Cr217       O532   1.981       .  S
Cr217       O533   2.005       .  S
Cr217       O220   1.781       .  S
Cr218      O1498   2.008       .  S
Cr218       O220   1.784       .  S
Cr219      O1502   1.971       .  S
Cr219       O220   1.777       .  S
O221       Cr239   1.985       .  S
O221        C229   1.257       .  A
O222       Cr239   2.007       .  S
O222        C223   1.261       .  A
C223        C282   1.437       .  S
C223        O224   1.254       .  A
O224       Cr240   1.969       .  S
O225       Cr240   1.993       .  S
O225        C226   1.267       .  A
C226        O227   1.267       .  A
O227       Cr241   1.990       .  S
O228       Cr241   2.006       .  S
O228        C229   1.260       .  A
C229        C274   1.439       .  S
O230       Cr563   2.013       .  S
O230       C1210   1.270       .  A
O231       Cr563   1.978       .  S
O231       C1204   1.261       .  A
C232        C267   1.472       .  S
C232       O1203   1.261       .  A
C232        O881   1.267       .  A
O233       Cr240   2.014       .  S
O233        C880   1.267       .  A
O234       Cr888   1.973   1_545  S
O234        C235   1.258       .  A
C235        C285   1.421       .  S
C235        O236   1.252       .  A
O236       Cr889   1.979   1_545  S
O237       Cr241   1.996       .  S
O237        C886   1.262       .  A
C238       O1202   1.270   1_545  A
C238        O885   1.262       .  A
Cr239       O554   2.013       .  S
Cr239       O555   1.978       .  S
Cr239       O242   1.780       .  S
Cr240       O882   1.973       .  S
Cr240       O242   1.774       .  S
Cr241       O884   1.979       .  S
Cr241       O242   1.787       .  S
O243       Cr261   2.011       .  S
O243        C251   1.262       .  A
O244       Cr261   1.980       .  S
O244        C245   1.258       .  A
C245        C271   1.439       .  S
C245        O246   1.264       .  A
O246       Cr262   2.012       .  S
O247       Cr262   1.992       .  S
O247        C248   1.268       .  A
C248        O249   1.264       .  A
O249       Cr263   1.990       .  S
O250       Cr263   1.970       .  S
O250        C251   1.253       .  A
C251        C278   1.439       .  S
O252       Cr585   1.979       .  S
O252        C584   1.261       .  A
O253       Cr585   2.009       .  S
O253        C578   1.267       .  A
C254        O255   1.263       .  A
C254        O577   1.267       .  A
O255       Cr262   2.004       .  S
O256       Cr262   1.981       .  S
O256        C257   1.255       .  A
C257        C284   1.419       .  S
C257        O258   1.257       .  A
O258       Cr263   1.967       .  S
O259       Cr263   2.018       .  S
O259        C260   1.268       .  A
C260        C265   1.473       .  S
C260        O576   1.261       .  A
Cr261       O576   1.979       .  S
Cr261       O577   2.009       .  S
Cr261       O264   1.779       .  S
Cr262       O264   1.785       .  S
Cr263       O264   1.778       .  S
C265        N266   1.365       .  A
C265        N594   1.354   1_554  A
N266        C267   1.367       .  A
C267        N592   1.360   1_554  A
N268        C269   1.356       .  A
N268        C591   1.360       .  A
C269        N270   1.357       .  A
N270        C589   1.354       .  A
C271        C272   1.208       .  T
C272        C273   1.416       .  S
C273        C274   1.208       .  T
C275        C276   1.208       .  T
C276        C277   1.416       .  S
C277        C278   1.208       .  T
C279        C280   1.207       .  T
C280        C281   1.414       .  S
C281        C282   1.207       .  T
C283        C284   1.196       .  T
C285        C286   1.197       .  T
C287        C288   1.198       .  T
C289        C290   1.206       .  T
C290        C939   1.413       .  S
C291        C292   1.206       .  T
C291        C938   1.413       .  S
C293        C294   1.206       .  T
C294        C295   1.412       .  S
C295        C296   1.206       .  T
C297        C298   1.211       .  T
C298        C947   1.421       .  S
C299        C300   1.211       .  T
C299        C946   1.421       .  S
C301        C302   1.198       .  T
C303        C304   1.197       .  T
C305        C306   1.196       .  T
C307        C308   1.207       .  T
C308        C309   1.414       .  S
C309        C310   1.207       .  T
C311        C312   1.207       .  T
C312        C313   1.414       .  S
C313        C314   1.207       .  T
C315        C316   1.210       .  T
C316        C317   1.418       .  S
C317        C318   1.210       .  T
C319        C320   1.197       .  T
C321        C970   1.198       .  T
C322        C969   1.198   1_545  T
C323        C972   1.196       .  T
C324        C971   1.196   1_545  T
C325        N326   1.360       .  A
C325        N330   1.369       .  A
C325        C404   1.472       .  S
N326        C327   1.356       .  A
C327        N328   1.358       .  A
C327        C460   1.471       .  S
N328        C329   1.358       .  A
C329        N330   1.366       .  A
C329       C1650   1.486   1_455  S
C331        N332   1.370       .  A
C331        N336   1.361       .  A
C331       C1678   1.476   1_455  S
N332        C333   1.367       .  A
C333        N334   1.357       .  A
C333        C398   1.482       .  S
N334        C335   1.355       .  A
C335        N336   1.353       .  A
C335        C438   1.468       .  S
C337        N338   1.349       .  A
C337        N342   1.351       .  A
C337        C647   1.412       .  S
N338        C339   1.349       .  A
C339        N340   1.352       .  A
C339        C643   1.414       .  S
N340       C1637   1.351       .  A
C341       N1636   1.351   1_455  A
C341       N1638   1.350   1_455  A
C341        C645   1.418       .  S
N342       C1637   1.350       .  A
O343       Cr361   2.012       .  S
O343        C351   1.262       .  A
O344       Cr361   1.977       .  S
O344        C345   1.257       .  A
C345        C635   1.437       .  S
C345        O346   1.264       .  A
O346       Cr362   2.011       .  S
O347       Cr362   1.996       .  S
O347        C348   1.268       .  A
C348        C509   1.468       .  S
C348        O349   1.264       .  A
O349       Cr363   1.985       .  S
O350       Cr363   1.972       .  S
O350        C351   1.254       .  A
C351        C639   1.441       .  S
O352       Cr361   1.975   1_565  S
O352       C1008   1.261       .  A
O353       Cr361   2.014       .  S
O353        C354   1.268       .  A
C354       C1625   1.486       .  S
C354        O355   1.264       .  A
O355       Cr362   2.007       .  S
O356       Cr362   1.980       .  S
O356        C357   1.254       .  A
C357        C648   1.419       .  S
C357       O1006   1.257   1_545  A
O358      Cr1011   1.968       .  S
O358       C1005   1.257       .  A
O359      Cr1011   2.015       .  S
O359        C360   1.267       .  A
C360        C411   1.470       .  S
C360       O1000   1.261       .  A
Cr361       O364   1.779       .  S
Cr362       O364   1.786       .  S
Cr363      O1006   1.968   1_545  S
Cr363      O1007   2.015   1_545  S
Cr363       O364   1.777       .  S
O365       Cr383   1.983       .  S
O365        C373   1.257       .  A
O366       Cr383   2.005       .  S
O366        C367   1.261       .  A
C367        C631   1.437       .  S
C367        O368   1.254       .  A
O368       Cr384   1.971       .  S
O369       Cr384   1.999       .  S
O369        C370   1.268       .  A
C370        C515   1.469       .  S
C370        O371   1.267       .  A
O371       Cr385   1.987       .  S
O372       Cr385   2.005       .  S
O372        C373   1.261       .  A
C373        C638   1.437       .  S
O374       Cr383   2.010       .  S
O374        C382   1.269       .  A
O375       Cr383   1.975       .  S
O375        C376   1.260       .  A
C376        C409   1.474       .  S
C376        O377   1.269       .  A
O377       Cr384   2.020       .  S
O378       Cr384   1.972       .  S
O378        C379   1.257       .  A
C379        C644   1.420       .  S
C379        O380   1.253       .  A
O380       Cr385   1.979       .  S
O381       Cr385   1.993       .  S
O381        C382   1.262       .  A
C382       C1627   1.476       .  S
Cr383       O386   1.780       .  S
Cr384       O386   1.775       .  S
Cr385       O386   1.785       .  S
O387       Cr405   2.008       .  S
O387        C395   1.261       .  A
O388       Cr405   1.989       .  S
O388        C389   1.259       .  A
C389        C642   1.442       .  S
C389        O390   1.262   1_545  A
O390       Cr406   2.007   1_565  S
O391       Cr406   1.991       .  S
O391        C392   1.267       .  A
C392        C593   1.467       .  S
C392        O393   1.266       .  A
O393       Cr407   1.991       .  S
O394       Cr407   1.969       .  S
O394        C395   1.254       .  A
C395        C634   1.437       .  S
O396       Cr405   1.985       .  S
O396        C404   1.263       .  A
O397       Cr405   2.010   1_565  S
O397       C1046   1.269       .  A
C398       O1045   1.269       .  A
C398        O399   1.264       .  A
O399      Cr1054   2.002       .  S
O400      Cr1054   1.986       .  S
O400       C1049   1.255       .  A
C401        C646   1.423       .  S
C401       O1048   1.255       .  A
C401        O402   1.256       .  A
O402       Cr407   1.971       .  S
O403       Cr407   2.007       .  S
O403        C404   1.265       .  A
Cr405       O408   1.780       .  S
Cr406      O1047   2.002   1_545  S
Cr406      O1048   1.986       .  S
Cr406       O408   1.786       .  S
Cr407       O408   1.776       .  S
C409        N410   1.367       .  A
C409        N414   1.362       .  A
N410        C411   1.365       .  A
C411        N412   1.353       .  A
N412        C413   1.354       .  A
C413        N414   1.358       .  A
C413        C482   1.467       .  S
C415        N416   1.361       .  A
C415        N420   1.367       .  A
C415        C494   1.472       .  S
N416        C417   1.356       .  A
C417        N418   1.356       .  A
C417        C550   1.467       .  S
N418        C419   1.354       .  A
C419        N420   1.365       .  A
C419        C444   1.472       .  S
C421       N1718   1.361       .  A
C421        N426   1.369       .  A
C421        C466   1.474       .  S
N422       C1717   1.361       .  A
N422        C423   1.357       .  A
C423        N424   1.356       .  A
C423        C528   1.471       .  S
N424       C1721   1.357       .  A
C425       N1720   1.357       .  A
C425        N426   1.366       .  A
C425        C450   1.484       .  S
C427        N428   1.351       .  A
C427        N432   1.349       .  A
C427        C629   1.412       .  S
N428        C429   1.350       .  A
C429        N430   1.352       .  A
C429        C626   1.418       .  S
N430        C431   1.352       .  A
C431        N432   1.349       .  A
C431        C628   1.415       .  S
O433       Cr451   1.975       .  S
O433       C1737   1.256       .  A
O434       Cr451   2.014       .  S
O434        C435   1.263       .  A
C435        C621   1.444       .  S
C435        O436   1.254       .  A
O436       Cr452   1.973       .  S
O437       Cr452   1.987       .  S
O437        C438   1.264       .  A
C438        O439   1.268       .  A
O439       Cr453   1.994       .  S
O440       Cr453   2.010       .  S
O440       C1737   1.263       .  A
C441        C620   1.435       .  S
C441       O1729   1.256       .  A
C441       O1736   1.263       .  A
O442       Cr451   2.013       .  S
O442        C450   1.268       .  A
O443       Cr451   1.976       .  S
O443        C444   1.261       .  A
C444        O445   1.267       .  A
O445       Cr452   2.017       .  S
O446       Cr452   1.969       .  S
O446        C447   1.257       .  A
C447        C630   1.420       .  S
C447        O448   1.254       .  A
O448       Cr453   1.980       .  S
O449       Cr453   2.005       .  S
O449        C450   1.263       .  A
Cr451       O454   1.780       .  S
Cr452       O454   1.778       .  S
Cr453       O454   1.786       .  S
O455       Cr473   1.990       .  S
O455        C463   1.260       .  A
O456       Cr473   2.005       .  S
O456       C1753   1.261   1_455  A
C457        C613   1.436       .  S
C457       O1752   1.261       .  A
C457       O1754   1.254       .  A
O458       Cr474   1.971       .  S
O458       C1753   1.254   1_455  A
O459       Cr474   1.993       .  S
O459        C460   1.266       .  A
C460        O461   1.268       .  A
O461       Cr475   1.994       .  S
O462       Cr475   2.011       .  S
O462        C463   1.263       .  A
C463        C624   1.445       .  S
O464       Cr473   2.007       .  S
O464        C472   1.267       .  A
O465       Cr473   1.985       .  S
O465        C466   1.263       .  A
C466        O467   1.266       .  A
O467       Cr474   2.010       .  S
O468       Cr474   1.971       .  S
O468        C469   1.257       .  A
C469        C625   1.423       .  S
C469        O470   1.255       .  A
O470       Cr475   1.986       .  S
O471       Cr475   2.005       .  S
O471        C472   1.264       .  A
C472        C499   1.482       .  S
Cr473       O476   1.782       .  S
Cr474       O476   1.778       .  S
Cr475       O476   1.786       .  S
O477       Cr495   2.004       .  S
O477        C485   1.260       .  A
O478       Cr495   1.982       .  S
O478        C479   1.256       .  A
C479        C617   1.435       .  S
C479        O480   1.260       .  A
O480       Cr496   2.004       .  S
O481       Cr496   1.986       .  S
O481        C482   1.267       .  A
C482        O483   1.269       .  A
O483       Cr497   1.998       .  S
O484       Cr497   1.970       .  S
O484        C485   1.254       .  A
C485        C616   1.436       .  S
O486       Cr495   1.974       .  S
O486        C494   1.260       .  A
O487       Cr495   2.010       .  S
O487        C488   1.269       .  A
C488        C503   1.475       .  S
C488        O489   1.263       .  A
O489       Cr496   1.992       .  S
O490       Cr496   1.980       .  S
O490        C491   1.252       .  A
C491        C627   1.422       .  S
C491        O492   1.257       .  A
O492       Cr497   1.974       .  S
O493       Cr497   2.018       .  S
O493        C494   1.268       .  A
Cr495       O498   1.781       .  S
Cr496       O498   1.786       .  S
Cr497       O498   1.775       .  S
C499        N500   1.357       .  A
C499        N504   1.366       .  A
N500        C501   1.355       .  A
C501        N502   1.353       .  A
C501        C572   1.469       .  S
N502        C503   1.361       .  A
C503        N504   1.369       .  A
C505        N506   1.369       .  A
C505        C534   1.478       .  S
N506        C507   1.367       .  A
C507        C562   1.479       .  S
N508        C509   1.354       .  A
C509        N510   1.355       .  A
C511        N512   1.370       .  A
C511        C540   1.475       .  S
N512        C513   1.366       .  A
C513        C578   1.483       .  S
N514        C515   1.355       .  A
C515        N516   1.357       .  A
C517        N518   1.352       .  A
C517        N522   1.349       .  A
C517        C607   1.412       .  S
N518        C519   1.350       .  A
C519        N520   1.352       .  A
C519        C611   1.418       .  S
N520        C521   1.352       .  A
C521        N522   1.349       .  A
C521        C610   1.414       .  S
O523      Cr1837   2.006       .  S
O523        C531   1.260   1_655  A
O524      Cr1837   1.986   1_455  S
O524        C525   1.259       .  A
C525        C599   1.440       .  S
C525        O526   1.263   1_455  A
O526      Cr1838   2.008       .  S
O527       Cr542   1.991       .  S
O527        C528   1.267       .  A
C528        O529   1.267       .  A
O529       Cr543   1.998       .  S
O530      Cr1839   1.971   1_455  S
O530        C531   1.254       .  A
C531        C603   1.437       .  S
C534        O535   1.264       .  A
O535       Cr542   2.000       .  S
O536       Cr542   1.987       .  S
O536        C537   1.255       .  A
C537        C612   1.423       .  S
C537        O538   1.256       .  A
O538       Cr543   1.969       .  S
O539       Cr543   2.016       .  S
O539        C540   1.268       .  A
Cr541      O1819   2.006       .  S
Cr541      O1820   1.986       .  S
Cr541       O544   1.781       .  S
Cr542      O1822   2.008       .  S
Cr542       O544   1.784       .  S
Cr543      O1826   1.971       .  S
Cr543       O544   1.777       .  S
O545       Cr563   1.985       .  S
O545        C553   1.257       .  A
O546       Cr563   2.007       .  S
O546        C547   1.261       .  A
C547        C606   1.437       .  S
C547        O548   1.254       .  A
O548       Cr564   1.969       .  S
O549       Cr564   1.993       .  S
O549        C550   1.267       .  A
C550        O551   1.267       .  A
O551       Cr565   1.990       .  S
O552       Cr565   2.006       .  S
O552        C553   1.260       .  A
C553        C598   1.439       .  S
O554        C886   1.270       .  A
O555        C880   1.261       .  A
C556        C591   1.472       .  S
C556        O879   1.261       .  A
C556       O1205   1.267       .  A
O557       Cr564   2.014       .  S
O557       C1204   1.267       .  A
O558      Cr1212   1.973   1_545  S
O558        C559   1.258       .  A
C559        C609   1.421       .  S
C559        O560   1.252       .  A
O560      Cr1213   1.979   1_545  S
O561       Cr565   1.996       .  S
O561       C1210   1.262       .  A
C562        O878   1.270   1_545  A
C562       O1209   1.262       .  A
Cr563       O566   1.780       .  S
Cr564      O1206   1.973       .  S
Cr564       O566   1.774       .  S
Cr565      O1208   1.979       .  S
Cr565       O566   1.787       .  S
O567       Cr585   2.011       .  S
O567        C575   1.262       .  A
O568       Cr585   1.980       .  S
O568        C569   1.258       .  A
C569        C595   1.439       .  S
C569        O570   1.264       .  A
O570       Cr586   2.012       .  S
O571       Cr586   1.992       .  S
O571        C572   1.268       .  A
C572        O573   1.264       .  A
O573       Cr587   1.990       .  S
O574       Cr587   1.970       .  S
O574        C575   1.253       .  A
C575        C602   1.439       .  S
C578        O579   1.263       .  A
O579       Cr586   2.004       .  S
O580       Cr586   1.981       .  S
O580        C581   1.255       .  A
C581        C608   1.419       .  S
C581        O582   1.257       .  A
O582       Cr587   1.967       .  S
O583       Cr587   2.018       .  S
O583        C584   1.268       .  A
C584        C589   1.473       .  S
Cr585       O588   1.779       .  S
Cr586       O588   1.785       .  S
Cr587       O588   1.778       .  S
C589        N590   1.365       .  A
N590        C591   1.367       .  A
N592        C593   1.356       .  A
C593        N594   1.357       .  A
C595        C596   1.208       .  T
C596        C597   1.416       .  S
C597        C598   1.208       .  T
C599        C600   1.208       .  T
C600        C601   1.416       .  S
C601        C602   1.208       .  T
C603        C604   1.207       .  T
C604        C605   1.414       .  S
C605        C606   1.207       .  T
C607        C608   1.196       .  T
C609        C610   1.197       .  T
C611        C612   1.198       .  T
C613        C614   1.206       .  T
C614       C1263   1.413       .  S
C615        C616   1.206       .  T
C615       C1262   1.413       .  S
C617        C618   1.206       .  T
C618        C619   1.412       .  S
C619        C620   1.206       .  T
C621        C622   1.211       .  T
C622       C1271   1.421       .  S
C623        C624   1.211       .  T
C623       C1270   1.421       .  S
C625        C626   1.198       .  T
C627        C628   1.197       .  T
C629        C630   1.196       .  T
C631        C632   1.207       .  T
C632        C633   1.414       .  S
C633        C634   1.207       .  T
C635        C636   1.207       .  T
C636        C637   1.414       .  S
C637        C638   1.207       .  T
C639        C640   1.210       .  T
C640        C641   1.418       .  S
C641        C642   1.210       .  T
C643        C644   1.197       .  T
C645       C1294   1.198       .  T
C646       C1293   1.198   1_545  T
C647       C1296   1.196       .  T
C648       C1295   1.196   1_545  T
C649        N650   1.360       .  A
C649        N654   1.369       .  A
C649        C728   1.472       .  S
N650        C651   1.356       .  A
C651        N652   1.358       .  A
C651        C784   1.471       .  S
N652        C653   1.358       .  A
C653        N654   1.366       .  A
C653       C1974   1.486   1_455  S
C655        N656   1.370       .  A
C655        N660   1.361       .  A
C655       C2002   1.476   1_455  S
N656        C657   1.367       .  A
C657        N658   1.357       .  A
C657        C722   1.482       .  S
N658        C659   1.355       .  A
C659        N660   1.353       .  A
C659        C762   1.468       .  S
C661        N662   1.349       .  A
C661        N666   1.351       .  A
C661        C971   1.412       .  S
N662        C663   1.349       .  A
C663        N664   1.352       .  A
C663        C967   1.414       .  S
N664       C1961   1.351       .  A
C665       N1960   1.351   1_455  A
C665       N1962   1.350   1_455  A
C665        C969   1.418       .  S
N666       C1961   1.350       .  A
O667       Cr685   2.012       .  S
O667        C675   1.262       .  A
O668       Cr685   1.977       .  S
O668        C669   1.257       .  A
C669        C959   1.437       .  S
C669        O670   1.264       .  A
O670       Cr686   2.011       .  S
O671       Cr686   1.996       .  S
O671        C672   1.268       .  A
C672        C833   1.468       .  S
C672        O673   1.264       .  A
O673       Cr687   1.985       .  S
O674       Cr687   1.972       .  S
O674        C675   1.254       .  A
C675        C963   1.441       .  S
O676       Cr685   1.975       .  S
O677       Cr685   2.014       .  S
O677        C678   1.268       .  A
C678       C1949   1.486       .  S
C678        O679   1.264       .  A
O679       Cr686   2.007       .  S
O680       Cr686   1.980       .  S
O680        C681   1.254       .  A
C681        C972   1.419       .  S
O683        C684   1.267       .  A
C684        C735   1.470       .  S
Cr685       O688   1.779       .  S
Cr686       O688   1.786       .  S
Cr687       O688   1.777       .  S
O689       Cr707   1.983       .  S
O689        C697   1.257       .  A
O690       Cr707   2.005       .  S
O690        C691   1.261       .  A
C691        C955   1.437       .  S
C691        O692   1.254       .  A
O692       Cr708   1.971       .  S
O693       Cr708   1.999       .  S
O693        C694   1.268       .  A
C694        C839   1.469       .  S
C694        O695   1.267       .  A
O695       Cr709   1.987       .  S
O696       Cr709   2.005       .  S
O696        C697   1.261       .  A
C697        C962   1.437       .  S
O698       Cr707   2.010       .  S
O698        C706   1.269       .  A
O699       Cr707   1.975       .  S
O699        C700   1.260       .  A
C700        C733   1.474       .  S
C700        O701   1.269       .  A
O701       Cr708   2.020       .  S
O702       Cr708   1.972       .  S
O702        C703   1.257       .  A
C703        C968   1.420       .  S
C703        O704   1.253       .  A
O704       Cr709   1.979       .  S
O705       Cr709   1.993       .  S
O705        C706   1.262       .  A
C706       C1951   1.476       .  S
Cr707       O710   1.780       .  S
Cr708       O710   1.775       .  S
Cr709       O710   1.785       .  S
O711       Cr729   2.008       .  S
O711        C719   1.261       .  A
O712       Cr729   1.989       .  S
O712        C713   1.259       .  A
C713        C966   1.442       .  S
C713        O714   1.262       .  A
O714       Cr730   2.007       .  S
O715       Cr730   1.991       .  S
O715        C716   1.267       .  A
C716        C917   1.467       .  S
C716        O717   1.266       .  A
O717       Cr731   1.991       .  S
O718       Cr731   1.969       .  S
O718        C719   1.254       .  A
C719        C958   1.437       .  S
O720       Cr729   1.985       .  S
O720        C728   1.263       .  A
O721       Cr729   2.010       .  S
C722        O723   1.264       .  A
C725        C970   1.423       .  S
C725        O726   1.256       .  A
O726       Cr731   1.971       .  S
O727       Cr731   2.007       .  S
O727        C728   1.265       .  A
Cr729       O732   1.780       .  S
Cr730       O732   1.786       .  S
Cr731       O732   1.776       .  S
C733        N734   1.367       .  A
C733        N738   1.362       .  A
N734        C735   1.365       .  A
C735        N736   1.353       .  A
N736        C737   1.354       .  A
C737        N738   1.358       .  A
C737        C806   1.467       .  S
C739        N740   1.361       .  A
C739        N744   1.367       .  A
C739        C818   1.472       .  S
N740        C741   1.356       .  A
C741        N742   1.356       .  A
C741        C874   1.467       .  S
N742        C743   1.354       .  A
C743        N744   1.365       .  A
C743        C768   1.472       .  S
C745       N2042   1.361       .  A
C745        N750   1.369       .  A
C745        C790   1.474       .  S
N746       C2041   1.361       .  A
N746        C747   1.357       .  A
C747        N748   1.356       .  A
C747        C852   1.471       .  S
N748       C2045   1.357       .  A
C749       N2044   1.357       .  A
C749        N750   1.366       .  A
C749        C774   1.484       .  S
C751        N752   1.351       .  A
C751        N756   1.349       .  A
C751        C953   1.412       .  S
N752        C753   1.350       .  A
C753        N754   1.352       .  A
C753        C950   1.418       .  S
N754        C755   1.352       .  A
C755        N756   1.349       .  A
C755        C952   1.415       .  S
O757       Cr775   1.975       .  S
O757       C2061   1.256       .  A
O758       Cr775   2.014       .  S
O758        C759   1.263       .  A
C759        C945   1.444       .  S
C759        O760   1.254       .  A
O760       Cr776   1.973       .  S
O761       Cr776   1.987       .  S
O761        C762   1.264       .  A
C762        O763   1.268       .  A
O763       Cr777   1.994       .  S
O764       Cr777   2.010       .  S
O764       C2061   1.263       .  A
C765        C944   1.435       .  S
C765       O2053   1.256       .  A
C765       O2060   1.263       .  A
O766       Cr775   2.013       .  S
O766        C774   1.268       .  A
O767       Cr775   1.976       .  S
O767        C768   1.261       .  A
C768        O769   1.267       .  A
O769       Cr776   2.017       .  S
O770       Cr776   1.969       .  S
O770        C771   1.257       .  A
C771        C954   1.420       .  S
C771        O772   1.254       .  A
O772       Cr777   1.980       .  S
O773       Cr777   2.005       .  S
O773        C774   1.263       .  A
Cr775       O778   1.780       .  S
Cr776       O778   1.778       .  S
Cr777       O778   1.786       .  S
O779       Cr797   1.990       .  S
O779        C787   1.260       .  A
O780       Cr797   2.005       .  S
O780       C2077   1.261   1_455  A
C781        C937   1.436       .  S
C781       O2076   1.261       .  A
C781       O2078   1.254       .  A
O782       Cr798   1.971       .  S
O782       C2077   1.254   1_455  A
O783       Cr798   1.993       .  S
O783        C784   1.266       .  A
C784        O785   1.268       .  A
O785       Cr799   1.994       .  S
O786       Cr799   2.011       .  S
O786        C787   1.263       .  A
C787        C948   1.445       .  S
O788       Cr797   2.007       .  S
O788        C796   1.267       .  A
O789       Cr797   1.985       .  S
O789        C790   1.263       .  A
C790        O791   1.266       .  A
O791       Cr798   2.010       .  S
O792       Cr798   1.971       .  S
O792        C793   1.257       .  A
C793        C949   1.423       .  S
C793        O794   1.255       .  A
O794       Cr799   1.986       .  S
O795       Cr799   2.005       .  S
O795        C796   1.264       .  A
C796        C823   1.482       .  S
Cr797       O800   1.782       .  S
Cr798       O800   1.778       .  S
Cr799       O800   1.786       .  S
O801       Cr819   2.004       .  S
O801        C809   1.260       .  A
O802       Cr819   1.982       .  S
O802        C803   1.256       .  A
C803        C941   1.435       .  S
C803        O804   1.260       .  A
O804       Cr820   2.004       .  S
O805       Cr820   1.986       .  S
O805        C806   1.267       .  A
C806        O807   1.269       .  A
O807       Cr821   1.998       .  S
O808       Cr821   1.970       .  S
O808        C809   1.254       .  A
C809        C940   1.436       .  S
O810       Cr819   1.974       .  S
O810        C818   1.260       .  A
O811       Cr819   2.010       .  S
O811        C812   1.269       .  A
C812        C827   1.475       .  S
C812        O813   1.263       .  A
O813       Cr820   1.992       .  S
O814       Cr820   1.980       .  S
O814        C815   1.252       .  A
C815        C951   1.422       .  S
C815        O816   1.257       .  A
O816       Cr821   1.974       .  S
O817       Cr821   2.018       .  S
O817        C818   1.268       .  A
Cr819       O822   1.781       .  S
Cr820       O822   1.786       .  S
Cr821       O822   1.775       .  S
C823        N824   1.357       .  A
C823        N828   1.366       .  A
N824        C825   1.355       .  A
C825        N826   1.353       .  A
C825        C896   1.469       .  S
N826        C827   1.361       .  A
C827        N828   1.369       .  A
C829        N830   1.369       .  A
C829       N1158   1.363   1_554  A
C829        C858   1.478       .  S
N830        C831   1.367       .  A
C831       N1156   1.355   1_554  A
C831        C886   1.479       .  S
N832       C1155   1.355       .  A
N832        C833   1.354       .  A
C833        N834   1.355       .  A
N834       C1153   1.363       .  A
C835        N836   1.370       .  A
C835       N1164   1.361   1_554  A
C835        C864   1.475       .  S
N836        C837   1.366       .  A
C837       N1162   1.356   1_554  A
C837        C902   1.483       .  S
N838       C1161   1.356       .  A
N838        C839   1.355       .  A
C839        N840   1.357       .  A
N840       C1159   1.361       .  A
C841        N842   1.352       .  A
C841        N846   1.349       .  A
C841        C931   1.412       .  S
N842        C843   1.350       .  A
C843        N844   1.352       .  A
C843        C935   1.418       .  S
N844        C845   1.352       .  A
C845        N846   1.349       .  A
C845        C934   1.414       .  S
O847      Cr2161   2.006       .  S
O847        C855   1.260   1_655  A
O848      Cr2161   1.986   1_455  S
O848        C849   1.259       .  A
C849        C923   1.440       .  S
C849        O850   1.263   1_455  A
O850      Cr2162   2.008       .  S
O851       Cr866   1.991       .  S
O851        C852   1.267       .  A
C852        O853   1.267       .  A
O853       Cr867   1.998       .  S
O854      Cr2163   1.971   1_455  S
O854        C855   1.254       .  A
C855        C927   1.437       .  S
O856      Cr1189   1.981       .  S
O856       C1188   1.262       .  A
O857      Cr1189   2.005       .  S
O857       C1182   1.266       .  A
C858       O1181   1.266       .  A
C858        O859   1.264       .  A
O859       Cr866   2.000       .  S
O860       Cr866   1.987       .  S
O860        C861   1.255       .  A
C861        C936   1.423       .  S
C861        O862   1.256       .  A
O862       Cr867   1.969       .  S
O863       Cr867   2.016       .  S
O863        C864   1.268       .  A
C864       O1180   1.262       .  A
Cr865      O2143   2.006       .  S
Cr865      O2144   1.986       .  S
Cr865      O1180   1.981       .  S
Cr865      O1181   2.005       .  S
Cr865       O868   1.781       .  S
Cr866      O2146   2.008       .  S
Cr866       O868   1.784       .  S
Cr867      O2150   1.971       .  S
Cr867       O868   1.777       .  S
O869       Cr887   1.985       .  S
O869        C877   1.257       .  A
O870       Cr887   2.007       .  S
O870        C871   1.261       .  A
C871        C930   1.437       .  S
C871        O872   1.254       .  A
O872       Cr888   1.969       .  S
O873       Cr888   1.993       .  S
O873        C874   1.267       .  A
C874        O875   1.267       .  A
O875       Cr889   1.990       .  S
O876       Cr889   2.006       .  S
O876        C877   1.260       .  A
C877        C922   1.439       .  S
O878      Cr1211   2.013       .  S
O879      Cr1211   1.978   1_545  S
C880        C915   1.472       .  S
O881       Cr888   2.014   1_545  S
O882        C883   1.258       .  A
C883        C933   1.421       .  S
C883        O884   1.253       .  A
O885       Cr889   1.996   1_545  S
Cr887      O1202   2.013       .  S
Cr887      O1203   1.978   1_565  S
Cr887       O890   1.780       .  S
Cr888       O890   1.774       .  S
Cr889       O890   1.787       .  S
O891       Cr909   2.011       .  S
O891        C899   1.262       .  A
O892       Cr909   1.980       .  S
O892        C893   1.258       .  A
C893        C919   1.439       .  S
C893        O894   1.264       .  A
O894       Cr910   2.012       .  S
O895       Cr910   1.992       .  S
O895        C896   1.268       .  A
C896        O897   1.264       .  A
O897       Cr911   1.990       .  S
O898       Cr911   1.970       .  S
O898        C899   1.253       .  A
C899        C926   1.439       .  S
O900      Cr1233   1.979       .  S
O900       C1232   1.261       .  A
O901      Cr1233   2.009       .  S
O901       C1226   1.267       .  A
C902       O1225   1.267       .  A
C902        O903   1.263       .  A
O903       Cr910   2.004       .  S
O904       Cr910   1.981       .  S
O904        C905   1.255       .  A
C905        C932   1.419       .  S
C905        O906   1.257       .  A
O906       Cr911   1.967       .  S
O907       Cr911   2.018       .  S
O907        C908   1.268       .  A
C908        C913   1.473       .  S
C908       O1224   1.261       .  A
Cr909      O1224   1.979       .  S
Cr909      O1225   2.009       .  S
Cr909       O912   1.779       .  S
Cr910       O912   1.785       .  S
Cr911       O912   1.778       .  S
C913        N914   1.365       .  A
C913       N1242   1.354   1_554  A
N914        C915   1.367       .  A
C915       N1240   1.360   1_554  A
N916       C1239   1.360       .  A
N916        C917   1.356       .  A
C917        N918   1.357       .  A
N918       C1237   1.354       .  A
C919        C920   1.208       .  T
C920        C921   1.416       .  S
C921        C922   1.208       .  T
C923        C924   1.208       .  T
C924        C925   1.416       .  S
C925        C926   1.208       .  T
C927        C928   1.207       .  T
C928        C929   1.414       .  S
C929        C930   1.207       .  T
C931        C932   1.196       .  T
C933        C934   1.197       .  T
C935        C936   1.198       .  T
C937        C938   1.206       .  T
C939        C940   1.206   1_545  T
C941        C942   1.206       .  T
C942        C943   1.412       .  S
C943        C944   1.206       .  T
C945        C946   1.211   1_565  T
C947        C948   1.211       .  T
C949        C950   1.198       .  T
C951        C952   1.197       .  T
C953        C954   1.196       .  T
C955        C956   1.207       .  T
C956        C957   1.414       .  S
C957        C958   1.207       .  T
C959        C960   1.207       .  T
C960        C961   1.414       .  S
C961        C962   1.207       .  T
C963        C964   1.210       .  T
C964        C965   1.418       .  S
C965        C966   1.210       .  T
C967        C968   1.197       .  T
C973        N974   1.360       .  A
C973        N978   1.369       .  A
C973       C1052   1.472       .  S
N974        C975   1.356       .  A
C975        N976   1.358       .  A
C975       C1108   1.471       .  S
N976        C977   1.358       .  A
C977        N978   1.366       .  A
C977       C2298   1.486   1_455  S
C979        N980   1.370       .  A
C979        N984   1.361       .  A
C979       C2326   1.476   1_455  S
N980        C981   1.367       .  A
C981        N982   1.357       .  A
C981       C1046   1.482       .  S
N982        C983   1.355       .  A
C983        N984   1.353       .  A
C983       C1086   1.468       .  S
C985        N986   1.349       .  A
C985        N990   1.351       .  A
C985       C1295   1.412       .  S
N986        C987   1.349       .  A
C987        N988   1.352       .  A
C987       C1291   1.414       .  S
N988       C2285   1.351       .  A
C989       N2284   1.351   1_455  A
C989       N2286   1.350   1_455  A
C989       C1293   1.418       .  S
N990       C2285   1.350       .  A
O991      Cr1009   2.012       .  S
O991        C999   1.262       .  A
O992      Cr1009   1.977       .  S
O992        C993   1.257       .  A
C993       C1283   1.437       .  S
C993        O994   1.264       .  A
O994      Cr1010   2.011       .  S
O995      Cr1010   1.996       .  S
O995        C996   1.268       .  A
C996       C1157   1.468       .  S
C996        O997   1.264       .  A
O997      Cr1011   1.985       .  S
O998      Cr1011   1.972       .  S
O998        C999   1.254       .  A
C999       C1287   1.441       .  S
O1000     Cr1009   1.975       .  S
O1001     Cr1009   2.014       .  S
O1001      C1002   1.268       .  A
C1002      C2273   1.486       .  S
C1002      O1003   1.264       .  A
O1003     Cr1010   2.007       .  S
O1004     Cr1010   1.980       .  S
O1004      C1005   1.254       .  A
C1005      C1296   1.419       .  S
O1007      C1008   1.267       .  A
C1008      C1059   1.470       .  S
Cr1009     O1012   1.779       .  S
Cr1010     O1012   1.786       .  S
Cr1011     O1012   1.777       .  S
O1013     Cr1031   1.983       .  S
O1013      C1021   1.257       .  A
O1014     Cr1031   2.005       .  S
O1014      C1015   1.261       .  A
C1015      C1279   1.437       .  S
C1015      O1016   1.254       .  A
O1016     Cr1032   1.971       .  S
O1017     Cr1032   1.999       .  S
O1017      C1018   1.268       .  A
C1018      C1163   1.469       .  S
C1018      O1019   1.267       .  A
O1019     Cr1033   1.987       .  S
O1020     Cr1033   2.005       .  S
O1020      C1021   1.261       .  A
C1021      C1286   1.437       .  S
O1022     Cr1031   2.010       .  S
O1022      C1030   1.269       .  A
O1023     Cr1031   1.975       .  S
O1023      C1024   1.260       .  A
C1024      C1057   1.474       .  S
C1024      O1025   1.269       .  A
O1025     Cr1032   2.020       .  S
O1026     Cr1032   1.972       .  S
O1026      C1027   1.257       .  A
C1027      C1292   1.420       .  S
C1027      O1028   1.253       .  A
O1028     Cr1033   1.979       .  S
O1029     Cr1033   1.993       .  S
O1029      C1030   1.262       .  A
C1030      C2275   1.476       .  S
Cr1031     O1034   1.780       .  S
Cr1032     O1034   1.775       .  S
Cr1033     O1034   1.785       .  S
O1035     Cr1053   2.008       .  S
O1035      C1043   1.261       .  A
O1036     Cr1053   1.989       .  S
O1036      C1037   1.259       .  A
C1037      C1290   1.442       .  S
C1037      O1038   1.262       .  A
O1038     Cr1054   2.007       .  S
O1039     Cr1054   1.991       .  S
O1039      C1040   1.267       .  A
C1040      C1241   1.467       .  S
C1040      O1041   1.266       .  A
O1041     Cr1055   1.991       .  S
O1042     Cr1055   1.969       .  S
O1042      C1043   1.254       .  A
C1043      C1282   1.437       .  S
O1044     Cr1053   1.985       .  S
O1044      C1052   1.263       .  A
O1045     Cr1053   2.010       .  S
C1046      O1047   1.264       .  A
C1049      C1294   1.423       .  S
C1049      O1050   1.256       .  A
O1050     Cr1055   1.971       .  S
O1051     Cr1055   2.007       .  S
O1051      C1052   1.265       .  A
Cr1053     O1056   1.780       .  S
Cr1054     O1056   1.786       .  S
Cr1055     O1056   1.776       .  S
C1057      N1058   1.367       .  A
C1057      N1062   1.362       .  A
N1058      C1059   1.365       .  A
C1059      N1060   1.353       .  A
N1060      C1061   1.354       .  A
C1061      N1062   1.358       .  A
C1061      C1130   1.467       .  S
C1063      N1064   1.361       .  A
C1063      N1068   1.367       .  A
C1063      C1142   1.472       .  S
N1064      C1065   1.356       .  A
C1065      N1066   1.356       .  A
C1065      C1198   1.467       .  S
N1066      C1067   1.354       .  A
C1067      N1068   1.365       .  A
C1067      C1092   1.472       .  S
C1069      N2366   1.361       .  A
C1069      N1074   1.369       .  A
C1069      C1114   1.474       .  S
N1070      C2365   1.361       .  A
N1070      C1071   1.357       .  A
C1071      N1072   1.356       .  A
C1071      C1176   1.471       .  S
N1072      C2369   1.357       .  A
C1073      N2368   1.357       .  A
C1073      N1074   1.366       .  A
C1073      C1098   1.484       .  S
C1075      N1076   1.351       .  A
C1075      N1080   1.349       .  A
C1075      C1277   1.412       .  S
N1076      C1077   1.350       .  A
C1077      N1078   1.352       .  A
C1077      C1274   1.418       .  S
N1078      C1079   1.352       .  A
C1079      N1080   1.349       .  A
C1079      C1276   1.415       .  S
O1081     Cr1099   1.975       .  S
O1081      C2385   1.256       .  A
O1082     Cr1099   2.014       .  S
O1082      C1083   1.263       .  A
C1083      C1269   1.444       .  S
C1083      O1084   1.254       .  A
O1084     Cr1100   1.973       .  S
O1085     Cr1100   1.987       .  S
O1085      C1086   1.264       .  A
C1086      O1087   1.268       .  A
O1087     Cr1101   1.994       .  S
O1088     Cr1101   2.010       .  S
O1088      C2385   1.263       .  A
C1089      C1268   1.435       .  S
C1089      O2377   1.256       .  A
C1089      O2384   1.263       .  A
O1090     Cr1099   2.013       .  S
O1090      C1098   1.268       .  A
O1091     Cr1099   1.976       .  S
O1091      C1092   1.261       .  A
C1092      O1093   1.267       .  A
O1093     Cr1100   2.017       .  S
O1094     Cr1100   1.969       .  S
O1094      C1095   1.257       .  A
C1095      C1278   1.420       .  S
C1095      O1096   1.254       .  A
O1096     Cr1101   1.980       .  S
O1097     Cr1101   2.005       .  S
O1097      C1098   1.263       .  A
Cr1099     O1102   1.780       .  S
Cr1100     O1102   1.778       .  S
Cr1101     O1102   1.786       .  S
O1103     Cr1121   1.990       .  S
O1103      C1111   1.260       .  A
O1104     Cr1121   2.005       .  S
O1104      C2401   1.261   1_455  A
C1105      C1261   1.436       .  S
C1105      O2400   1.261       .  A
C1105      O2402   1.254       .  A
O1106     Cr1122   1.971       .  S
O1106      C2401   1.254   1_455  A
O1107     Cr1122   1.993       .  S
O1107      C1108   1.266       .  A
C1108      O1109   1.268       .  A
O1109     Cr1123   1.994       .  S
O1110     Cr1123   2.011       .  S
O1110      C1111   1.263       .  A
C1111      C1272   1.445       .  S
O1112     Cr1121   2.007       .  S
O1112      C1120   1.267       .  A
O1113     Cr1121   1.985       .  S
O1113      C1114   1.263       .  A
C1114      O1115   1.266       .  A
O1115     Cr1122   2.010       .  S
O1116     Cr1122   1.971       .  S
O1116      C1117   1.257       .  A
C1117      C1273   1.423       .  S
C1117      O1118   1.255       .  A
O1118     Cr1123   1.986       .  S
O1119     Cr1123   2.005       .  S
O1119      C1120   1.264       .  A
C1120      C1147   1.482       .  S
Cr1121     O1124   1.782       .  S
Cr1122     O1124   1.778       .  S
Cr1123     O1124   1.786       .  S
O1125     Cr1143   2.004       .  S
O1125      C1133   1.260       .  A
O1126     Cr1143   1.982       .  S
O1126      C1127   1.256       .  A
C1127      C1265   1.435       .  S
C1127      O1128   1.260       .  A
O1128     Cr1144   2.004       .  S
O1129     Cr1144   1.986       .  S
O1129      C1130   1.267       .  A
C1130      O1131   1.269       .  A
O1131     Cr1145   1.998       .  S
O1132     Cr1145   1.970       .  S
O1132      C1133   1.254       .  A
C1133      C1264   1.436       .  S
O1134     Cr1143   1.974       .  S
O1134      C1142   1.260       .  A
O1135     Cr1143   2.010       .  S
O1135      C1136   1.269       .  A
C1136      C1151   1.475       .  S
C1136      O1137   1.263       .  A
O1137     Cr1144   1.992       .  S
O1138     Cr1144   1.980       .  S
O1138      C1139   1.252       .  A
C1139      C1275   1.422       .  S
C1139      O1140   1.257       .  A
O1140     Cr1145   1.974       .  S
O1141     Cr1145   2.018       .  S
O1141      C1142   1.268       .  A
Cr1143     O1146   1.781       .  S
Cr1144     O1146   1.786       .  S
Cr1145     O1146   1.775       .  S
C1147      N1148   1.357       .  A
C1147      N1152   1.366       .  A
N1148      C1149   1.355       .  A
C1149      N1150   1.353       .  A
C1149      C1220   1.469       .  S
N1150      C1151   1.361       .  A
C1151      N1152   1.369       .  A
C1153      N1154   1.369       .  A
C1153      C1182   1.478       .  S
N1154      C1155   1.367       .  A
C1155      C1210   1.479       .  S
N1156      C1157   1.354       .  A
C1157      N1158   1.355       .  A
C1159      N1160   1.370       .  A
C1159      C1188   1.475       .  S
N1160      C1161   1.366       .  A
C1161      C1226   1.483       .  S
N1162      C1163   1.355       .  A
C1163      N1164   1.357       .  A
C1165      N1166   1.352       .  A
C1165      N1170   1.349       .  A
C1165      C1255   1.412       .  S
N1166      C1167   1.350       .  A
C1167      N1168   1.352       .  A
C1167      C1259   1.418       .  S
N1168      C1169   1.352       .  A
C1169      N1170   1.349       .  A
C1169      C1258   1.414       .  S
O1171     Cr2485   2.006       .  S
O1171      C1179   1.260   1_655  A
O1172     Cr2485   1.986   1_455  S
O1172      C1173   1.259       .  A
C1173      C1247   1.440       .  S
C1173      O1174   1.263   1_455  A
O1174     Cr2486   2.008       .  S
O1175     Cr1190   1.991       .  S
O1175      C1176   1.267       .  A
C1176      O1177   1.267       .  A
O1177     Cr1191   1.998       .  S
O1178     Cr2487   1.971   1_455  S
O1178      C1179   1.254       .  A
C1179      C1251   1.437       .  S
C1182      O1183   1.264       .  A
O1183     Cr1190   2.000       .  S
O1184     Cr1190   1.987       .  S
O1184      C1185   1.255       .  A
C1185      C1260   1.423       .  S
C1185      O1186   1.256       .  A
O1186     Cr1191   1.969       .  S
O1187     Cr1191   2.016       .  S
O1187      C1188   1.268       .  A
Cr1189     O2467   2.006       .  S
Cr1189     O2468   1.986       .  S
Cr1189     O1192   1.781       .  S
Cr1190     O2470   2.008       .  S
Cr1190     O1192   1.784       .  S
Cr1191     O2474   1.971       .  S
Cr1191     O1192   1.777       .  S
O1193     Cr1211   1.985       .  S
O1193      C1201   1.257       .  A
O1194     Cr1211   2.007       .  S
O1194      C1195   1.261       .  A
C1195      C1254   1.437       .  S
C1195      O1196   1.254       .  A
O1196     Cr1212   1.969       .  S
O1197     Cr1212   1.993       .  S
O1197      C1198   1.267       .  A
C1198      O1199   1.267       .  A
O1199     Cr1213   1.990       .  S
O1200     Cr1213   2.006       .  S
O1200      C1201   1.260       .  A
C1201      C1246   1.439       .  S
C1204      C1239   1.472       .  S
O1205     Cr1212   2.014   1_545  S
O1206      C1207   1.258       .  A
C1207      C1257   1.421       .  S
C1207      O1208   1.252       .  A
O1209     Cr1213   1.996   1_545  S
Cr1211     O1214   1.780       .  S
Cr1212     O1214   1.774       .  S
Cr1213     O1214   1.787       .  S
O1215     Cr1233   2.011       .  S
O1215      C1223   1.262       .  A
O1216     Cr1233   1.980       .  S
O1216      C1217   1.258       .  A
C1217      C1243   1.439       .  S
C1217      O1218   1.264       .  A
O1218     Cr1234   2.012       .  S
O1219     Cr1234   1.992       .  S
O1219      C1220   1.268       .  A
C1220      O1221   1.264       .  A
O1221     Cr1235   1.990       .  S
O1222     Cr1235   1.970       .  S
O1222      C1223   1.253       .  A
C1223      C1250   1.439       .  S
C1226      O1227   1.263       .  A
O1227     Cr1234   2.004       .  S
O1228     Cr1234   1.981       .  S
O1228      C1229   1.255       .  A
C1229      C1256   1.419       .  S
C1229      O1230   1.257       .  A
O1230     Cr1235   1.967       .  S
O1231     Cr1235   2.018       .  S
O1231      C1232   1.268       .  A
C1232      C1237   1.473       .  S
Cr1233     O1236   1.779       .  S
Cr1234     O1236   1.785       .  S
Cr1235     O1236   1.778       .  S
C1237      N1238   1.365       .  A
N1238      C1239   1.367       .  A
N1240      C1241   1.356       .  A
C1241      N1242   1.357       .  A
C1243      C1244   1.208       .  T
C1244      C1245   1.416       .  S
C1245      C1246   1.208       .  T
C1247      C1248   1.208       .  T
C1248      C1249   1.416       .  S
C1249      C1250   1.208       .  T
C1251      C1252   1.207       .  T
C1252      C1253   1.414       .  S
C1253      C1254   1.207       .  T
C1255      C1256   1.196       .  T
C1257      C1258   1.197       .  T
C1259      C1260   1.198       .  T
C1261      C1262   1.206       .  T
C1263      C1264   1.206   1_545  T
C1265      C1266   1.206       .  T
C1266      C1267   1.412       .  S
C1267      C1268   1.206       .  T
C1269      C1270   1.211   1_565  T
C1271      C1272   1.211       .  T
C1273      C1274   1.198       .  T
C1275      C1276   1.197       .  T
C1277      C1278   1.196       .  T
C1279      C1280   1.207       .  T
C1280      C1281   1.414       .  S
C1281      C1282   1.207       .  T
C1283      C1284   1.207       .  T
C1284      C1285   1.414       .  S
C1285      C1286   1.207       .  T
C1287      C1288   1.210       .  T
C1288      C1289   1.418       .  S
C1289      C1290   1.210       .  T
C1291      C1292   1.197       .  T
C1297      N1298   1.360       .  A
C1297      N1302   1.369       .  A
C1297      C1376   1.472       .  S
N1298      C1299   1.356       .  A
C1299      N1300   1.358       .  A
C1299      C1432   1.471       .  S
N1300      C1301   1.358       .  A
C1301      N1302   1.366       .  A
C1303      N1304   1.370       .  A
C1303      N1308   1.361       .  A
N1304      C1305   1.367       .  A
C1305      N1306   1.357       .  A
C1305      C1370   1.482       .  S
N1306      C1307   1.355       .  A
C1307      N1308   1.353       .  A
C1307      C1410   1.468       .  S
C1309      N1310   1.349       .  A
C1309      N1314   1.351       .  A
C1309      C1619   1.412       .  S
N1310      C1311   1.349       .  A
C1311      N1312   1.352       .  A
C1311      C1615   1.414       .  S
C1313      C1617   1.418       .  S
O1315     Cr1333   2.012       .  S
O1315      C1323   1.262       .  A
O1316     Cr1333   1.977       .  S
O1316      C1317   1.257       .  A
C1317      C1607   1.437       .  S
C1317      O1318   1.264       .  A
O1318     Cr1334   2.011       .  S
O1319     Cr1334   1.996       .  S
O1319      C1320   1.268       .  A
C1320      C1481   1.468       .  S
C1320      O1321   1.264       .  A
O1321     Cr1335   1.985       .  S
O1322     Cr1335   1.972       .  S
O1322      C1323   1.254       .  A
C1323      C1611   1.441       .  S
O1324     Cr1333   1.975   1_565  S
O1324      C1980   1.261       .  A
O1325     Cr1333   2.014       .  S
O1325      C1326   1.268       .  A
C1326      O1327   1.264       .  A
O1327     Cr1334   2.007       .  S
O1328     Cr1334   1.980       .  S
O1328      C1329   1.254       .  A
C1329      C1620   1.419       .  S
C1329      O1978   1.257   1_545  A
O1330     Cr1983   1.968       .  S
O1330      C1977   1.257       .  A
O1331     Cr1983   2.015       .  S
O1331      C1332   1.267       .  A
C1332      C1383   1.470       .  S
C1332      O1972   1.261       .  A
Cr1333     O1336   1.779       .  S
Cr1334     O1336   1.786       .  S
Cr1335     O1978   1.968   1_545  S
Cr1335     O1979   2.015   1_545  S
Cr1335     O1336   1.777       .  S
O1337     Cr1355   1.983       .  S
O1337      C1345   1.257       .  A
O1338     Cr1355   2.005       .  S
O1338      C1339   1.261       .  A
C1339      C1603   1.437       .  S
C1339      O1340   1.254       .  A
O1340     Cr1356   1.971       .  S
O1341     Cr1356   1.999       .  S
O1341      C1342   1.268       .  A
C1342      C1487   1.469       .  S
C1342      O1343   1.267       .  A
O1343     Cr1357   1.987       .  S
O1344     Cr1357   2.005       .  S
O1344      C1345   1.261       .  A
C1345      C1610   1.437       .  S
O1346     Cr1355   2.010       .  S
O1346      C1354   1.269       .  A
O1347     Cr1355   1.975       .  S
O1347      C1348   1.260       .  A
C1348      C1381   1.474       .  S
C1348      O1349   1.269       .  A
O1349     Cr1356   2.020       .  S
O1350     Cr1356   1.972       .  S
O1350      C1351   1.257       .  A
C1351      C1616   1.420       .  S
C1351      O1352   1.253       .  A
O1352     Cr1357   1.979       .  S
O1353     Cr1357   1.993       .  S
O1353      C1354   1.262       .  A
Cr1355     O1358   1.780       .  S
Cr1356     O1358   1.775       .  S
Cr1357     O1358   1.785       .  S
O1359     Cr1377   2.008       .  S
O1359      C1367   1.261       .  A
O1360     Cr1377   1.989       .  S
O1360      C1361   1.259       .  A
C1361      C1614   1.442       .  S
C1361      O1362   1.262   1_545  A
O1362     Cr1378   2.007   1_565  S
O1363     Cr1378   1.991       .  S
O1363      C1364   1.267       .  A
C1364      C1565   1.467       .  S
C1364      O1365   1.266       .  A
O1365     Cr1379   1.991       .  S
O1366     Cr1379   1.969       .  S
O1366      C1367   1.254       .  A
C1367      C1606   1.437       .  S
O1368     Cr1377   1.985       .  S
O1368      C1376   1.263       .  A
O1369     Cr1377   2.010   1_565  S
O1369      C2018   1.269       .  A
C1370      O2017   1.269       .  A
C1370      O1371   1.264       .  A
O1371     Cr2026   2.002       .  S
O1372     Cr2026   1.986       .  S
O1372      C2021   1.255       .  A
C1373      C1618   1.423       .  S
C1373      O2020   1.255       .  A
C1373      O1374   1.256       .  A
O1374     Cr1379   1.971       .  S
O1375     Cr1379   2.007       .  S
O1375      C1376   1.265       .  A
Cr1377     O1380   1.780       .  S
Cr1378     O2019   2.002   1_545  S
Cr1378     O2020   1.986       .  S
Cr1378     O1380   1.786       .  S
Cr1379     O1380   1.776       .  S
C1381      N1382   1.367       .  A
C1381      N1386   1.362       .  A
N1382      C1383   1.365       .  A
C1383      N1384   1.353       .  A
N1384      C1385   1.354       .  A
C1385      N1386   1.358       .  A
C1385      C1454   1.467       .  S
C1387      N1388   1.361       .  A
C1387      N1392   1.367       .  A
C1387      C1466   1.472       .  S
N1388      C1389   1.356       .  A
C1389      N1390   1.356       .  A
C1389      C1522   1.467       .  S
N1390      C1391   1.354       .  A
C1391      N1392   1.365       .  A
C1391      C1416   1.472       .  S
C1393      N1398   1.369       .  A
C1393      C1438   1.474       .  S
N1394      C1395   1.357       .  A
C1395      N1396   1.356       .  A
C1395      C1500   1.471       .  S
C1397      N1398   1.366       .  A
C1397      C1422   1.484       .  S
C1399      N1400   1.351       .  A
C1399      N1404   1.349       .  A
C1399      C1601   1.412       .  S
N1400      C1401   1.350       .  A
C1401      N1402   1.352       .  A
C1401      C1598   1.418       .  S
N1402      C1403   1.352       .  A
C1403      N1404   1.349       .  A
C1403      C1600   1.415       .  S
O1405     Cr1423   1.975       .  S
O1406     Cr1423   2.014       .  S
O1406      C1407   1.263       .  A
C1407      C1593   1.444       .  S
C1407      O1408   1.254       .  A
O1408     Cr1424   1.973       .  S
O1409     Cr1424   1.987       .  S
O1409      C1410   1.264       .  A
C1410      O1411   1.268       .  A
O1411     Cr1425   1.994       .  S
O1412     Cr1425   2.010       .  S
C1413      C1592   1.435   1_455  S
O1414     Cr1423   2.013       .  S
O1414      C1422   1.268       .  A
O1415     Cr1423   1.976       .  S
O1415      C1416   1.261       .  A
C1416      O1417   1.267       .  A
O1417     Cr1424   2.017       .  S
O1418     Cr1424   1.969       .  S
O1418      C1419   1.257       .  A
C1419      C1602   1.420       .  S
C1419      O1420   1.254       .  A
O1420     Cr1425   1.980       .  S
O1421     Cr1425   2.005       .  S
O1421      C1422   1.263       .  A
Cr1423     O1426   1.780       .  S
Cr1424     O1426   1.778       .  S
Cr1425     O1426   1.786       .  S
O1427     Cr1445   1.990       .  S
O1427      C1435   1.260       .  A
O1428     Cr1445   2.005       .  S
C1429      C1585   1.436       .  S
O1430     Cr1446   1.971       .  S
O1431     Cr1446   1.993       .  S
O1431      C1432   1.266       .  A
C1432      O1433   1.268       .  A
O1433     Cr1447   1.994       .  S
O1434     Cr1447   2.011       .  S
O1434      C1435   1.263       .  A
C1435      C1596   1.445       .  S
O1436     Cr1445   2.007       .  S
O1436      C1444   1.267       .  A
O1437     Cr1445   1.986       .  S
O1437      C1438   1.263       .  A
C1438      O1439   1.266       .  A
O1439     Cr1446   2.010       .  S
O1440     Cr1446   1.971       .  S
O1440      C1441   1.257       .  A
C1441      C1597   1.423       .  S
C1441      O1442   1.255       .  A
O1442     Cr1447   1.986       .  S
O1443     Cr1447   2.005       .  S
O1443      C1444   1.264       .  A
C1444      C1471   1.482       .  S
Cr1445     O1448   1.782       .  S
Cr1446     O1448   1.778       .  S
Cr1447     O1448   1.786       .  S
O1449     Cr1467   2.004       .  S
O1449      C1457   1.260       .  A
O1450     Cr1467   1.982       .  S
O1450      C1451   1.256       .  A
C1451      C1589   1.435       .  S
C1451      O1452   1.260       .  A
O1452     Cr1468   2.004       .  S
O1453     Cr1468   1.986       .  S
O1453      C1454   1.267       .  A
C1454      O1455   1.269       .  A
O1455     Cr1469   1.998       .  S
O1456     Cr1469   1.970       .  S
O1456      C1457   1.254       .  A
C1457      C1588   1.436       .  S
O1458     Cr1467   1.974       .  S
O1458      C1466   1.260       .  A
O1459     Cr1467   2.010       .  S
O1459      C1460   1.269       .  A
C1460      C1475   1.475       .  S
C1460      O1461   1.263       .  A
O1461     Cr1468   1.992       .  S
O1462     Cr1468   1.980       .  S
O1462      C1463   1.252       .  A
C1463      C1599   1.422       .  S
C1463      O1464   1.257       .  A
O1464     Cr1469   1.974       .  S
O1465     Cr1469   2.018       .  S
O1465      C1466   1.268       .  A
Cr1467     O1470   1.781       .  S
Cr1468     O1470   1.786       .  S
Cr1469     O1470   1.775       .  S
C1471      N1472   1.357       .  A
C1471      N1476   1.366       .  A
N1472      C1473   1.355       .  A
C1473      N1474   1.353       .  A
C1473      C1544   1.469       .  S
N1474      C1475   1.361       .  A
C1475      N1476   1.369       .  A
C1477      N1478   1.369       .  A
C1477      N1806   1.363   1_554  A
C1477      C1506   1.478       .  S
N1478      C1479   1.367       .  A
C1479      N1804   1.355   1_554  A
C1479      C1534   1.479       .  S
N1480      C1803   1.355       .  A
N1480      C1481   1.354       .  A
C1481      N1482   1.355       .  A
N1482      C1801   1.363       .  A
C1483      N1484   1.370       .  A
C1483      N1812   1.361   1_554  A
C1483      C1512   1.475       .  S
N1484      C1485   1.366       .  A
C1485      N1810   1.356   1_554  A
C1485      C1550   1.483       .  S
N1486      C1809   1.356       .  A
N1486      C1487   1.355       .  A
C1487      N1488   1.357       .  A
N1488      C1807   1.361       .  A
C1489      N1490   1.352       .  A
C1489      N1494   1.349       .  A
C1489      C1579   1.412       .  S
N1490      C1491   1.350       .  A
C1491      N1492   1.352       .  A
C1491      C1583   1.418       .  S
N1492      C1493   1.352       .  A
C1493      N1494   1.349       .  A
C1493      C1582   1.414       .  S
O1495      C1503   1.260       .  A
O1496      C1497   1.259       .  A
C1497      C1571   1.440       .  S
C1497      O1498   1.263       .  A
O1499     Cr1514   1.991   1_455  S
O1499      C1500   1.267       .  A
C1500      O1501   1.267   1_455  A
O1501     Cr1515   1.998       .  S
O1502      C1503   1.254       .  A
C1503      C1575   1.437       .  S
O1504     Cr1837   1.981       .  S
O1504      C1836   1.262       .  A
O1505     Cr1837   2.005       .  S
O1505      C1830   1.266       .  A
C1506      O1829   1.266       .  A
C1506      O1507   1.264       .  A
O1507     Cr1514   2.000       .  S
O1508     Cr1514   1.987       .  S
O1508      C1509   1.255       .  A
C1509      C1584   1.423       .  S
C1509      O1510   1.256       .  A
O1510     Cr1515   1.969       .  S
O1511     Cr1515   2.016       .  S
O1511      C1512   1.268       .  A
C1512      O1828   1.262       .  A
Cr1513     O1828   1.981       .  S
Cr1513     O1829   2.005       .  S
Cr1513     O1516   1.781       .  S
Cr1514     O1516   1.784       .  S
Cr1515     O1516   1.777       .  S
O1517     Cr1535   1.985       .  S
O1517      C1525   1.257       .  A
O1518     Cr1535   2.007       .  S
O1518      C1519   1.261       .  A
C1519      C1578   1.437       .  S
C1519      O1520   1.254       .  A
O1520     Cr1536   1.969       .  S
O1521     Cr1536   1.993       .  S
O1521      C1522   1.267       .  A
C1522      O1523   1.267       .  A
O1523     Cr1537   1.990       .  S
O1524     Cr1537   2.006       .  S
O1524      C1525   1.260       .  A
C1525      C1570   1.439       .  S
O1526     Cr1859   2.013       .  S
O1526      C2506   1.270       .  A
O1527     Cr1859   1.978       .  S
O1527      C2500   1.261       .  A
C1528      C1563   1.472       .  S
C1528      O2499   1.261       .  A
C1528      O2177   1.267       .  A
O1529     Cr1536   2.014       .  S
O1529      C2176   1.267       .  A
O1530     Cr2184   1.973   1_545  S
O1530      C1531   1.258       .  A
C1531      C1581   1.421       .  S
C1531      O1532   1.252       .  A
O1532     Cr2185   1.979   1_545  S
O1533     Cr1537   1.996       .  S
O1533      C2182   1.262       .  A
C1534      O2498   1.270   1_545  A
C1534      O2181   1.262       .  A
Cr1535     O1850   2.013       .  S
Cr1535     O1851   1.978       .  S
Cr1535     O1538   1.780       .  S
Cr1536     O2178   1.973       .  S
Cr1536     O1538   1.774       .  S
Cr1537     O2180   1.979       .  S
Cr1537     O1538   1.787       .  S
O1539     Cr1557   2.011       .  S
O1539      C1547   1.262       .  A
O1540     Cr1557   1.980       .  S
O1540      C1541   1.258       .  A
C1541      C1567   1.439       .  S
C1541      O1542   1.264       .  A
O1542     Cr1558   2.012       .  S
O1543     Cr1558   1.992       .  S
O1543      C1544   1.268       .  A
C1544      O1545   1.264       .  A
O1545     Cr1559   1.990       .  S
O1546     Cr1559   1.970       .  S
O1546      C1547   1.253       .  A
C1547      C1574   1.439       .  S
O1548     Cr1881   1.979       .  S
O1548      C1880   1.261       .  A
O1549     Cr1881   2.009       .  S
O1549      C1874   1.267       .  A
C1550      O1873   1.267       .  A
C1550      O1551   1.263       .  A
O1551     Cr1558   2.004       .  S
O1552     Cr1558   1.981       .  S
O1552      C1553   1.255       .  A
C1553      C1580   1.419       .  S
C1553      O1554   1.257       .  A
O1554     Cr1559   1.967       .  S
O1555     Cr1559   2.018       .  S
O1555      C1556   1.268       .  A
C1556      C1561   1.473       .  S
C1556      O1872   1.261       .  A
Cr1557     O1872   1.979       .  S
Cr1557     O1873   2.009       .  S
Cr1557     O1560   1.779       .  S
Cr1558     O1560   1.785       .  S
Cr1559     O1560   1.778       .  S
C1561      N1562   1.365       .  A
C1561      N1890   1.354   1_554  A
N1562      C1563   1.367       .  A
C1563      N1888   1.360   1_554  A
N1564      C1887   1.360       .  A
N1564      C1565   1.356       .  A
C1565      N1566   1.357       .  A
N1566      C1885   1.354       .  A
C1567      C1568   1.208       .  T
C1568      C1569   1.416       .  S
C1569      C1570   1.208       .  T
C1571      C1572   1.208       .  T
C1572      C1573   1.416       .  S
C1573      C1574   1.208       .  T
C1575      C1576   1.207       .  T
C1576      C1577   1.414       .  S
C1577      C1578   1.207       .  T
C1579      C1580   1.196       .  T
C1581      C1582   1.197       .  T
C1583      C1584   1.198       .  T
C1585      C1586   1.206       .  T
C1586      C2235   1.413       .  S
C1587      C1588   1.206       .  T
C1587      C2234   1.413       .  S
C1589      C1590   1.206       .  T
C1590      C1591   1.412       .  S
C1591      C1592   1.206       .  T
C1593      C1594   1.211       .  T
C1594      C2243   1.421       .  S
C1595      C1596   1.211       .  T
C1595      C2242   1.421       .  S
C1597      C1598   1.198       .  T
C1599      C1600   1.197       .  T
C1601      C1602   1.196       .  T
C1603      C1604   1.207       .  T
C1604      C1605   1.414       .  S
C1605      C1606   1.207       .  T
C1607      C1608   1.207       .  T
C1608      C1609   1.414       .  S
C1609      C1610   1.207       .  T
C1611      C1612   1.210       .  T
C1612      C1613   1.418       .  S
C1613      C1614   1.210       .  T
C1615      C1616   1.197       .  T
C1617      C2266   1.198       .  T
C1618      C2265   1.198   1_545  T
C1619      C2268   1.196       .  T
C1620      C2267   1.196   1_545  T
C1621      N1622   1.360       .  A
C1621      N1626   1.369       .  A
C1621      C1700   1.472       .  S
N1622      C1623   1.356       .  A
C1623      N1624   1.358       .  A
C1623      C1756   1.471       .  S
N1624      C1625   1.358       .  A
C1625      N1626   1.366       .  A
C1627      N1628   1.370       .  A
C1627      N1632   1.361       .  A
N1628      C1629   1.367       .  A
C1629      N1630   1.357       .  A
C1629      C1694   1.482       .  S
N1630      C1631   1.355       .  A
C1631      N1632   1.353       .  A
C1631      C1734   1.468       .  S
C1633      N1634   1.349       .  A
C1633      N1638   1.351       .  A
C1633      C1943   1.412       .  S
N1634      C1635   1.349       .  A
C1635      N1636   1.352       .  A
C1635      C1939   1.414       .  S
C1637      C1941   1.418       .  S
O1639     Cr1657   2.012       .  S
O1639      C1647   1.262       .  A
O1640     Cr1657   1.977       .  S
O1640      C1641   1.257       .  A
C1641      C1931   1.437       .  S
C1641      O1642   1.264       .  A
O1642     Cr1658   2.011       .  S
O1643     Cr1658   1.996       .  S
O1643      C1644   1.268       .  A
C1644      C1805   1.468       .  S
C1644      O1645   1.264       .  A
O1645     Cr1659   1.985       .  S
O1646     Cr1659   1.972       .  S
O1646      C1647   1.254       .  A
C1647      C1935   1.441       .  S
O1648     Cr1657   1.975   1_565  S
O1648      C2304   1.261       .  A
O1649     Cr1657   2.014       .  S
O1649      C1650   1.268       .  A
C1650      O1651   1.264       .  A
O1651     Cr1658   2.007       .  S
O1652     Cr1658   1.980       .  S
O1652      C1653   1.254       .  A
C1653      C1944   1.419       .  S
C1653      O2302   1.257   1_545  A
O1654     Cr2307   1.968       .  S
O1654      C2301   1.257       .  A
O1655     Cr2307   2.015       .  S
O1655      C1656   1.267       .  A
C1656      C1707   1.470       .  S
C1656      O2296   1.261       .  A
Cr1657     O1660   1.779       .  S
Cr1658     O1660   1.786       .  S
Cr1659     O2302   1.968   1_545  S
Cr1659     O2303   2.015   1_545  S
Cr1659     O1660   1.777       .  S
O1661     Cr1679   1.983       .  S
O1661      C1669   1.257       .  A
O1662     Cr1679   2.005       .  S
O1662      C1663   1.261       .  A
C1663      C1927   1.437       .  S
C1663      O1664   1.254       .  A
O1664     Cr1680   1.971       .  S
O1665     Cr1680   1.999       .  S
O1665      C1666   1.268       .  A
C1666      C1811   1.469       .  S
C1666      O1667   1.267       .  A
O1667     Cr1681   1.987       .  S
O1668     Cr1681   2.005       .  S
O1668      C1669   1.261       .  A
C1669      C1934   1.437       .  S
O1670     Cr1679   2.010       .  S
O1670      C1678   1.269       .  A
O1671     Cr1679   1.975       .  S
O1671      C1672   1.260       .  A
C1672      C1705   1.474       .  S
C1672      O1673   1.269       .  A
O1673     Cr1680   2.020       .  S
O1674     Cr1680   1.972       .  S
O1674      C1675   1.257       .  A
C1675      C1940   1.420       .  S
C1675      O1676   1.253       .  A
O1676     Cr1681   1.979       .  S
O1677     Cr1681   1.993       .  S
O1677      C1678   1.262       .  A
Cr1679     O1682   1.780       .  S
Cr1680     O1682   1.775       .  S
Cr1681     O1682   1.785       .  S
O1683     Cr1701   2.008       .  S
O1683      C1691   1.261       .  A
O1684     Cr1701   1.989       .  S
O1684      C1685   1.259       .  A
C1685      C1938   1.442       .  S
C1685      O1686   1.262   1_545  A
O1686     Cr1702   2.007   1_565  S
O1687     Cr1702   1.991       .  S
O1687      C1688   1.267       .  A
C1688      C1889   1.467       .  S
C1688      O1689   1.266       .  A
O1689     Cr1703   1.991       .  S
O1690     Cr1703   1.969       .  S
O1690      C1691   1.254       .  A
C1691      C1930   1.437       .  S
O1692     Cr1701   1.985       .  S
O1692      C1700   1.263       .  A
O1693     Cr1701   2.010   1_565  S
O1693      C2342   1.269       .  A
C1694      O2341   1.269       .  A
C1694      O1695   1.264       .  A
O1695     Cr2350   2.002       .  S
O1696     Cr2350   1.986       .  S
O1696      C2345   1.255       .  A
C1697      C1942   1.423       .  S
C1697      O2344   1.255       .  A
C1697      O1698   1.256       .  A
O1698     Cr1703   1.971       .  S
O1699     Cr1703   2.007       .  S
O1699      C1700   1.265       .  A
Cr1701     O1704   1.780       .  S
Cr1702     O2343   2.002   1_545  S
Cr1702     O2344   1.986       .  S
Cr1702     O1704   1.786       .  S
Cr1703     O1704   1.776       .  S
C1705      N1706   1.367       .  A
C1705      N1710   1.362       .  A
N1706      C1707   1.365       .  A
C1707      N1708   1.353       .  A
N1708      C1709   1.354       .  A
C1709      N1710   1.358       .  A
C1709      C1778   1.467       .  S
C1711      N1712   1.361       .  A
C1711      N1716   1.367       .  A
C1711      C1790   1.472       .  S
N1712      C1713   1.356       .  A
C1713      N1714   1.356       .  A
C1713      C1846   1.467       .  S
N1714      C1715   1.354       .  A
C1715      N1716   1.365       .  A
C1715      C1740   1.472       .  S
C1717      N1722   1.369       .  A
C1717      C1762   1.474       .  S
N1718      C1719   1.357       .  A
C1719      N1720   1.356       .  A
C1719      C1824   1.471       .  S
C1721      N1722   1.366       .  A
C1721      C1746   1.484       .  S
C1723      N1724   1.351       .  A
C1723      N1728   1.349       .  A
C1723      C1925   1.412       .  S
N1724      C1725   1.350       .  A
C1725      N1726   1.352       .  A
C1725      C1922   1.418       .  S
N1726      C1727   1.352       .  A
C1727      N1728   1.349       .  A
C1727      C1924   1.415       .  S
O1729     Cr1747   1.975       .  S
O1730     Cr1747   2.014       .  S
O1730      C1731   1.263       .  A
C1731      C1917   1.444       .  S
C1731      O1732   1.254       .  A
O1732     Cr1748   1.973       .  S
O1733     Cr1748   1.987       .  S
O1733      C1734   1.264       .  A
C1734      O1735   1.268       .  A
O1735     Cr1749   1.994       .  S
O1736     Cr1749   2.010       .  S
C1737      C1916   1.435   1_455  S
O1738     Cr1747   2.013       .  S
O1738      C1746   1.268       .  A
O1739     Cr1747   1.976       .  S
O1739      C1740   1.261       .  A
C1740      O1741   1.267       .  A
O1741     Cr1748   2.017       .  S
O1742     Cr1748   1.969       .  S
O1742      C1743   1.257       .  A
C1743      C1926   1.420       .  S
C1743      O1744   1.254       .  A
O1744     Cr1749   1.980       .  S
O1745     Cr1749   2.005       .  S
O1745      C1746   1.263       .  A
Cr1747     O1750   1.780       .  S
Cr1748     O1750   1.778       .  S
Cr1749     O1750   1.786       .  S
O1751     Cr1769   1.990       .  S
O1751      C1759   1.260       .  A
O1752     Cr1769   2.005       .  S
C1753      C1909   1.436       .  S
O1754     Cr1770   1.971       .  S
O1755     Cr1770   1.993       .  S
O1755      C1756   1.266       .  A
C1756      O1757   1.268       .  A
O1757     Cr1771   1.994       .  S
O1758     Cr1771   2.011       .  S
O1758      C1759   1.263       .  A
C1759      C1920   1.445       .  S
O1760     Cr1769   2.007       .  S
O1760      C1768   1.267       .  A
O1761     Cr1769   1.986       .  S
O1761      C1762   1.263       .  A
C1762      O1763   1.266       .  A
O1763     Cr1770   2.010       .  S
O1764     Cr1770   1.971       .  S
O1764      C1765   1.257       .  A
C1765      C1921   1.423       .  S
C1765      O1766   1.255       .  A
O1766     Cr1771   1.986       .  S
O1767     Cr1771   2.005       .  S
O1767      C1768   1.264       .  A
C1768      C1795   1.482       .  S
Cr1769     O1772   1.782       .  S
Cr1770     O1772   1.778       .  S
Cr1771     O1772   1.786       .  S
O1773     Cr1791   2.004       .  S
O1773      C1781   1.260       .  A
O1774     Cr1791   1.982       .  S
O1774      C1775   1.256       .  A
C1775      C1913   1.435       .  S
C1775      O1776   1.260       .  A
O1776     Cr1792   2.004       .  S
O1777     Cr1792   1.986       .  S
O1777      C1778   1.267       .  A
C1778      O1779   1.269       .  A
O1779     Cr1793   1.998       .  S
O1780     Cr1793   1.970       .  S
O1780      C1781   1.254       .  A
C1781      C1912   1.436       .  S
O1782     Cr1791   1.974       .  S
O1782      C1790   1.260       .  A
O1783     Cr1791   2.010       .  S
O1783      C1784   1.269       .  A
C1784      C1799   1.475       .  S
C1784      O1785   1.263       .  A
O1785     Cr1792   1.992       .  S
O1786     Cr1792   1.980       .  S
O1786      C1787   1.252       .  A
C1787      C1923   1.422       .  S
C1787      O1788   1.257       .  A
O1788     Cr1793   1.974       .  S
O1789     Cr1793   2.018       .  S
O1789      C1790   1.268       .  A
Cr1791     O1794   1.781       .  S
Cr1792     O1794   1.786       .  S
Cr1793     O1794   1.775       .  S
C1795      N1796   1.357       .  A
C1795      N1800   1.366       .  A
N1796      C1797   1.355       .  A
C1797      N1798   1.353       .  A
C1797      C1868   1.469       .  S
N1798      C1799   1.361       .  A
C1799      N1800   1.369       .  A
C1801      N1802   1.369       .  A
C1801      C1830   1.478       .  S
N1802      C1803   1.367       .  A
C1803      C1858   1.479       .  S
N1804      C1805   1.354       .  A
C1805      N1806   1.355       .  A
C1807      N1808   1.370       .  A
C1807      C1836   1.475       .  S
N1808      C1809   1.366       .  A
C1809      C1874   1.483       .  S
N1810      C1811   1.355       .  A
C1811      N1812   1.357       .  A
C1813      N1814   1.352       .  A
C1813      N1818   1.349       .  A
C1813      C1903   1.412       .  S
N1814      C1815   1.350       .  A
C1815      N1816   1.352       .  A
C1815      C1907   1.418       .  S
N1816      C1817   1.352       .  A
C1817      N1818   1.349       .  A
C1817      C1906   1.414       .  S
O1819      C1827   1.260       .  A
O1820      C1821   1.259       .  A
C1821      C1895   1.440       .  S
C1821      O1822   1.263       .  A
O1823     Cr1838   1.991   1_455  S
O1823      C1824   1.267       .  A
C1824      O1825   1.267   1_455  A
O1825     Cr1839   1.998       .  S
O1826      C1827   1.254       .  A
C1827      C1899   1.437       .  S
C1830      O1831   1.264       .  A
O1831     Cr1838   2.000       .  S
O1832     Cr1838   1.987       .  S
O1832      C1833   1.255       .  A
C1833      C1908   1.423       .  S
C1833      O1834   1.256       .  A
O1834     Cr1839   1.969       .  S
O1835     Cr1839   2.016       .  S
O1835      C1836   1.268       .  A
Cr1837     O1840   1.781       .  S
Cr1838     O1840   1.784       .  S
Cr1839     O1840   1.777       .  S
O1841     Cr1859   1.985       .  S
O1841      C1849   1.257       .  A
O1842     Cr1859   2.007       .  S
O1842      C1843   1.261       .  A
C1843      C1902   1.437       .  S
C1843      O1844   1.254       .  A
O1844     Cr1860   1.969       .  S
O1845     Cr1860   1.993       .  S
O1845      C1846   1.267       .  A
C1846      O1847   1.267       .  A
O1847     Cr1861   1.990       .  S
O1848     Cr1861   2.006       .  S
O1848      C1849   1.260       .  A
C1849      C1894   1.439       .  S
O1850      C2182   1.270       .  A
O1851      C2176   1.261       .  A
C1852      C1887   1.472       .  S
C1852      O2175   1.261       .  A
C1852      O2501   1.267       .  A
O1853     Cr1860   2.014       .  S
O1853      C2500   1.267       .  A
O1854     Cr2508   1.973   1_545  S
O1854      C1855   1.258       .  A
C1855      C1905   1.421       .  S
C1855      O1856   1.252       .  A
O1856     Cr2509   1.979   1_545  S
O1857     Cr1861   1.996       .  S
O1857      C2506   1.262       .  A
C1858      O2174   1.270   1_545  A
C1858      O2505   1.262       .  A
Cr1859     O1862   1.780       .  S
Cr1860     O2502   1.973       .  S
Cr1860     O1862   1.774       .  S
Cr1861     O2504   1.979       .  S
Cr1861     O1862   1.787       .  S
O1863     Cr1881   2.011       .  S
O1863      C1871   1.262       .  A
O1864     Cr1881   1.980       .  S
O1864      C1865   1.258       .  A
C1865      C1891   1.439       .  S
C1865      O1866   1.264       .  A
O1866     Cr1882   2.012       .  S
O1867     Cr1882   1.992       .  S
O1867      C1868   1.268       .  A
C1868      O1869   1.264       .  A
O1869     Cr1883   1.990       .  S
O1870     Cr1883   1.970       .  S
O1870      C1871   1.253       .  A
C1871      C1898   1.439       .  S
C1874      O1875   1.263       .  A
O1875     Cr1882   2.004       .  S
O1876     Cr1882   1.981       .  S
O1876      C1877   1.255       .  A
C1877      C1904   1.419       .  S
C1877      O1878   1.257       .  A
O1878     Cr1883   1.967       .  S
O1879     Cr1883   2.018       .  S
O1879      C1880   1.268       .  A
C1880      C1885   1.473       .  S
Cr1881     O1884   1.779       .  S
Cr1882     O1884   1.785       .  S
Cr1883     O1884   1.778       .  S
C1885      N1886   1.365       .  A
N1886      C1887   1.367       .  A
N1888      C1889   1.356       .  A
C1889      N1890   1.357       .  A
C1891      C1892   1.208       .  T
C1892      C1893   1.416       .  S
C1893      C1894   1.208       .  T
C1895      C1896   1.208       .  T
C1896      C1897   1.416       .  S
C1897      C1898   1.208       .  T
C1899      C1900   1.207       .  T
C1900      C1901   1.414       .  S
C1901      C1902   1.207       .  T
C1903      C1904   1.196       .  T
C1905      C1906   1.197       .  T
C1907      C1908   1.198       .  T
C1909      C1910   1.206       .  T
C1910      C2559   1.413       .  S
C1911      C1912   1.206       .  T
C1911      C2558   1.413       .  S
C1913      C1914   1.206       .  T
C1914      C1915   1.412       .  S
C1915      C1916   1.206       .  T
C1917      C1918   1.211       .  T
C1918      C2567   1.421       .  S
C1919      C1920   1.211       .  T
C1919      C2566   1.421       .  S
C1921      C1922   1.198       .  T
C1923      C1924   1.197       .  T
C1925      C1926   1.196       .  T
C1927      C1928   1.207       .  T
C1928      C1929   1.414       .  S
C1929      C1930   1.207       .  T
C1931      C1932   1.207       .  T
C1932      C1933   1.414       .  S
C1933      C1934   1.207       .  T
C1935      C1936   1.210       .  T
C1936      C1937   1.418       .  S
C1937      C1938   1.210       .  T
C1939      C1940   1.197       .  T
C1941      C2590   1.198       .  T
C1942      C2589   1.198   1_545  T
C1943      C2592   1.196       .  T
C1944      C2591   1.196   1_545  T
C1945      N1946   1.360       .  A
C1945      N1950   1.369       .  A
C1945      C2024   1.472       .  S
N1946      C1947   1.356       .  A
C1947      N1948   1.358       .  A
C1947      C2080   1.471       .  S
N1948      C1949   1.358       .  A
C1949      N1950   1.366       .  A
C1951      N1952   1.370       .  A
C1951      N1956   1.361       .  A
N1952      C1953   1.367       .  A
C1953      N1954   1.357       .  A
C1953      C2018   1.482       .  S
N1954      C1955   1.355       .  A
C1955      N1956   1.353       .  A
C1955      C2058   1.468       .  S
C1957      N1958   1.349       .  A
C1957      N1962   1.351       .  A
C1957      C2267   1.412       .  S
N1958      C1959   1.349       .  A
C1959      N1960   1.352       .  A
C1959      C2263   1.414       .  S
C1961      C2265   1.418       .  S
O1963     Cr1981   2.012       .  S
O1963      C1971   1.262       .  A
O1964     Cr1981   1.977       .  S
O1964      C1965   1.257       .  A
C1965      C2255   1.437       .  S
C1965      O1966   1.264       .  A
O1966     Cr1982   2.011       .  S
O1967     Cr1982   1.996       .  S
O1967      C1968   1.268       .  A
C1968      C2129   1.468       .  S
C1968      O1969   1.264       .  A
O1969     Cr1983   1.985       .  S
O1970     Cr1983   1.972       .  S
O1970      C1971   1.254       .  A
C1971      C2259   1.441       .  S
O1972     Cr1981   1.975       .  S
O1973     Cr1981   2.014       .  S
O1973      C1974   1.268       .  A
C1974      O1975   1.264       .  A
O1975     Cr1982   2.007       .  S
O1976     Cr1982   1.980       .  S
O1976      C1977   1.254       .  A
C1977      C2268   1.419       .  S
O1979      C1980   1.267       .  A
C1980      C2031   1.470       .  S
Cr1981     O1984   1.779       .  S
Cr1982     O1984   1.786       .  S
Cr1983     O1984   1.777       .  S
O1985     Cr2003   1.983       .  S
O1985      C1993   1.257       .  A
O1986     Cr2003   2.005       .  S
O1986      C1987   1.261       .  A
C1987      C2251   1.437       .  S
C1987      O1988   1.254       .  A
O1988     Cr2004   1.971       .  S
O1989     Cr2004   1.999       .  S
O1989      C1990   1.268       .  A
C1990      C2135   1.469       .  S
C1990      O1991   1.267       .  A
O1991     Cr2005   1.987       .  S
O1992     Cr2005   2.005       .  S
O1992      C1993   1.261       .  A
C1993      C2258   1.437       .  S
O1994     Cr2003   2.010       .  S
O1994      C2002   1.269       .  A
O1995     Cr2003   1.975       .  S
O1995      C1996   1.260       .  A
C1996      C2029   1.474       .  S
C1996      O1997   1.269       .  A
O1997     Cr2004   2.020       .  S
O1998     Cr2004   1.972       .  S
O1998      C1999   1.257       .  A
C1999      C2264   1.420       .  S
C1999      O2000   1.253       .  A
O2000     Cr2005   1.979       .  S
O2001     Cr2005   1.993       .  S
O2001      C2002   1.262       .  A
Cr2003     O2006   1.780       .  S
Cr2004     O2006   1.775       .  S
Cr2005     O2006   1.785       .  S
O2007     Cr2025   2.008       .  S
O2007      C2015   1.261       .  A
O2008     Cr2025   1.989       .  S
O2008      C2009   1.259       .  A
C2009      C2262   1.442       .  S
C2009      O2010   1.262       .  A
O2010     Cr2026   2.007       .  S
O2011     Cr2026   1.991       .  S
O2011      C2012   1.267       .  A
C2012      C2213   1.467       .  S
C2012      O2013   1.266       .  A
O2013     Cr2027   1.991       .  S
O2014     Cr2027   1.969       .  S
O2014      C2015   1.254       .  A
C2015      C2254   1.437       .  S
O2016     Cr2025   1.985       .  S
O2016      C2024   1.263       .  A
O2017     Cr2025   2.010       .  S
C2018      O2019   1.264       .  A
C2021      C2266   1.423       .  S
C2021      O2022   1.256       .  A
O2022     Cr2027   1.971       .  S
O2023     Cr2027   2.007       .  S
O2023      C2024   1.265       .  A
Cr2025     O2028   1.780       .  S
Cr2026     O2028   1.786       .  S
Cr2027     O2028   1.776       .  S
C2029      N2030   1.367       .  A
C2029      N2034   1.362       .  A
N2030      C2031   1.365       .  A
C2031      N2032   1.353       .  A
N2032      C2033   1.354       .  A
C2033      N2034   1.358       .  A
C2033      C2102   1.467       .  S
C2035      N2036   1.361       .  A
C2035      N2040   1.367       .  A
C2035      C2114   1.472       .  S
N2036      C2037   1.356       .  A
C2037      N2038   1.356       .  A
C2037      C2170   1.467       .  S
N2038      C2039   1.354       .  A
C2039      N2040   1.365       .  A
C2039      C2064   1.472       .  S
C2041      N2046   1.369       .  A
C2041      C2086   1.474       .  S
N2042      C2043   1.357       .  A
C2043      N2044   1.356       .  A
C2043      C2148   1.471       .  S
C2045      N2046   1.366       .  A
C2045      C2070   1.484       .  S
C2047      N2048   1.351       .  A
C2047      N2052   1.349       .  A
C2047      C2249   1.412       .  S
N2048      C2049   1.350       .  A
C2049      N2050   1.352       .  A
C2049      C2246   1.418       .  S
N2050      C2051   1.352       .  A
C2051      N2052   1.349       .  A
C2051      C2248   1.415       .  S
O2053     Cr2071   1.975       .  S
O2054     Cr2071   2.014       .  S
O2054      C2055   1.263       .  A
C2055      C2241   1.444       .  S
C2055      O2056   1.254       .  A
O2056     Cr2072   1.973       .  S
O2057     Cr2072   1.987       .  S
O2057      C2058   1.264       .  A
C2058      O2059   1.268       .  A
O2059     Cr2073   1.994       .  S
O2060     Cr2073   2.010       .  S
C2061      C2240   1.435   1_455  S
O2062     Cr2071   2.013       .  S
O2062      C2070   1.268       .  A
O2063     Cr2071   1.976       .  S
O2063      C2064   1.261       .  A
C2064      O2065   1.267       .  A
O2065     Cr2072   2.017       .  S
O2066     Cr2072   1.969       .  S
O2066      C2067   1.257       .  A
C2067      C2250   1.420       .  S
C2067      O2068   1.254       .  A
O2068     Cr2073   1.980       .  S
O2069     Cr2073   2.005       .  S
O2069      C2070   1.263       .  A
Cr2071     O2074   1.780       .  S
Cr2072     O2074   1.778       .  S
Cr2073     O2074   1.786       .  S
O2075     Cr2093   1.990       .  S
O2075      C2083   1.260       .  A
O2076     Cr2093   2.005       .  S
C2077      C2233   1.436       .  S
O2078     Cr2094   1.971       .  S
O2079     Cr2094   1.993       .  S
O2079      C2080   1.266       .  A
C2080      O2081   1.268       .  A
O2081     Cr2095   1.994       .  S
O2082     Cr2095   2.011       .  S
O2082      C2083   1.263       .  A
C2083      C2244   1.445       .  S
O2084     Cr2093   2.007       .  S
O2084      C2092   1.267       .  A
O2085     Cr2093   1.985       .  S
O2085      C2086   1.263       .  A
C2086      O2087   1.266       .  A
O2087     Cr2094   2.010       .  S
O2088     Cr2094   1.971       .  S
O2088      C2089   1.257       .  A
C2089      C2245   1.423       .  S
C2089      O2090   1.255       .  A
O2090     Cr2095   1.986       .  S
O2091     Cr2095   2.005       .  S
O2091      C2092   1.264       .  A
C2092      C2119   1.482       .  S
Cr2093     O2096   1.782       .  S
Cr2094     O2096   1.778       .  S
Cr2095     O2096   1.786       .  S
O2097     Cr2115   2.004       .  S
O2097      C2105   1.260       .  A
O2098     Cr2115   1.982       .  S
O2098      C2099   1.256       .  A
C2099      C2237   1.435       .  S
C2099      O2100   1.260       .  A
O2100     Cr2116   2.004       .  S
O2101     Cr2116   1.986       .  S
O2101      C2102   1.267       .  A
C2102      O2103   1.269       .  A
O2103     Cr2117   1.998       .  S
O2104     Cr2117   1.970       .  S
O2104      C2105   1.254       .  A
C2105      C2236   1.436       .  S
O2106     Cr2115   1.974       .  S
O2106      C2114   1.260       .  A
O2107     Cr2115   2.010       .  S
O2107      C2108   1.269       .  A
C2108      C2123   1.475       .  S
C2108      O2109   1.263       .  A
O2109     Cr2116   1.992       .  S
O2110     Cr2116   1.980       .  S
O2110      C2111   1.252       .  A
C2111      C2247   1.422       .  S
C2111      O2112   1.257       .  A
O2112     Cr2117   1.974       .  S
O2113     Cr2117   2.018       .  S
O2113      C2114   1.268       .  A
Cr2115     O2118   1.781       .  S
Cr2116     O2118   1.786       .  S
Cr2117     O2118   1.775       .  S
C2119      N2120   1.357       .  A
C2119      N2124   1.366       .  A
N2120      C2121   1.355       .  A
C2121      N2122   1.353       .  A
C2121      C2192   1.469       .  S
N2122      C2123   1.361       .  A
C2123      N2124   1.369       .  A
C2125      N2126   1.369       .  A
C2125      N2454   1.363   1_554  A
C2125      C2154   1.478       .  S
N2126      C2127   1.367       .  A
C2127      N2452   1.355   1_554  A
C2127      C2182   1.479       .  S
N2128      C2451   1.355       .  A
N2128      C2129   1.354       .  A
C2129      N2130   1.355       .  A
N2130      C2449   1.363       .  A
C2131      N2132   1.370       .  A
C2131      N2460   1.361   1_554  A
C2131      C2160   1.475       .  S
N2132      C2133   1.366       .  A
C2133      N2458   1.356   1_554  A
C2133      C2198   1.483       .  S
N2134      C2457   1.356       .  A
N2134      C2135   1.355       .  A
C2135      N2136   1.357       .  A
N2136      C2455   1.361       .  A
C2137      N2138   1.352       .  A
C2137      N2142   1.349       .  A
C2137      C2227   1.412       .  S
N2138      C2139   1.350       .  A
C2139      N2140   1.352       .  A
C2139      C2231   1.418       .  S
N2140      C2141   1.352       .  A
C2141      N2142   1.349       .  A
C2141      C2230   1.414       .  S
O2143      C2151   1.260       .  A
O2144      C2145   1.259       .  A
C2145      C2219   1.440       .  S
C2145      O2146   1.263       .  A
O2147     Cr2162   1.991   1_455  S
O2147      C2148   1.267       .  A
C2148      O2149   1.267   1_455  A
O2149     Cr2163   1.998       .  S
O2150      C2151   1.254       .  A
C2151      C2223   1.437       .  S
O2152     Cr2485   1.981       .  S
O2152      C2484   1.262       .  A
O2153     Cr2485   2.005       .  S
O2153      C2478   1.266       .  A
C2154      O2477   1.266       .  A
C2154      O2155   1.264       .  A
O2155     Cr2162   2.000       .  S
O2156     Cr2162   1.987       .  S
O2156      C2157   1.255       .  A
C2157      C2232   1.423       .  S
C2157      O2158   1.256       .  A
O2158     Cr2163   1.969       .  S
O2159     Cr2163   2.016       .  S
O2159      C2160   1.268       .  A
C2160      O2476   1.262       .  A
Cr2161     O2476   1.981       .  S
Cr2161     O2477   2.005       .  S
Cr2161     O2164   1.781       .  S
Cr2162     O2164   1.784       .  S
Cr2163     O2164   1.777       .  S
O2165     Cr2183   1.985       .  S
O2165      C2173   1.257       .  A
O2166     Cr2183   2.007       .  S
O2166      C2167   1.261       .  A
C2167      C2226   1.437       .  S
C2167      O2168   1.254       .  A
O2168     Cr2184   1.969       .  S
O2169     Cr2184   1.993       .  S
O2169      C2170   1.267       .  A
C2170      O2171   1.267       .  A
O2171     Cr2185   1.990       .  S
O2172     Cr2185   2.006       .  S
O2172      C2173   1.260       .  A
C2173      C2218   1.439       .  S
O2174     Cr2507   2.013       .  S
O2175     Cr2507   1.978   1_545  S
C2176      C2211   1.472       .  S
O2177     Cr2184   2.014   1_545  S
O2178      C2179   1.258       .  A
C2179      C2229   1.421       .  S
C2179      O2180   1.252       .  A
O2181     Cr2185   1.996   1_545  S
Cr2183     O2498   2.013       .  S
Cr2183     O2499   1.978   1_565  S
Cr2183     O2186   1.780       .  S
Cr2184     O2186   1.774       .  S
Cr2185     O2186   1.787       .  S
O2187     Cr2205   2.011       .  S
O2187      C2195   1.262       .  A
O2188     Cr2205   1.980       .  S
O2188      C2189   1.258       .  A
C2189      C2215   1.439       .  S
C2189      O2190   1.264       .  A
O2190     Cr2206   2.012       .  S
O2191     Cr2206   1.992       .  S
O2191      C2192   1.268       .  A
C2192      O2193   1.264       .  A
O2193     Cr2207   1.990       .  S
O2194     Cr2207   1.970       .  S
O2194      C2195   1.253       .  A
C2195      C2222   1.439       .  S
O2196     Cr2529   1.979       .  S
O2196      C2528   1.261       .  A
O2197     Cr2529   2.009       .  S
O2197      C2522   1.267       .  A
C2198      O2521   1.267       .  A
C2198      O2199   1.263       .  A
O2199     Cr2206   2.004       .  S
O2200     Cr2206   1.981       .  S
O2200      C2201   1.255       .  A
C2201      C2228   1.419       .  S
C2201      O2202   1.257       .  A
O2202     Cr2207   1.967       .  S
O2203     Cr2207   2.018       .  S
O2203      C2204   1.268       .  A
C2204      C2209   1.473       .  S
C2204      O2520   1.261       .  A
Cr2205     O2520   1.979       .  S
Cr2205     O2521   2.009       .  S
Cr2205     O2208   1.779       .  S
Cr2206     O2208   1.785       .  S
Cr2207     O2208   1.778       .  S
C2209      N2210   1.365       .  A
C2209      N2538   1.354   1_554  A
N2210      C2211   1.367       .  A
C2211      N2536   1.360   1_554  A
N2212      C2535   1.360       .  A
N2212      C2213   1.356       .  A
C2213      N2214   1.357       .  A
N2214      C2533   1.354       .  A
C2215      C2216   1.208       .  T
C2216      C2217   1.416       .  S
C2217      C2218   1.208       .  T
C2219      C2220   1.208       .  T
C2220      C2221   1.416       .  S
C2221      C2222   1.208       .  T
C2223      C2224   1.207       .  T
C2224      C2225   1.414       .  S
C2225      C2226   1.207       .  T
C2227      C2228   1.196       .  T
C2229      C2230   1.197       .  T
C2231      C2232   1.198       .  T
C2233      C2234   1.206       .  T
C2235      C2236   1.206   1_545  T
C2237      C2238   1.206       .  T
C2238      C2239   1.412       .  S
C2239      C2240   1.206       .  T
C2241      C2242   1.211   1_565  T
C2243      C2244   1.211       .  T
C2245      C2246   1.198       .  T
C2247      C2248   1.197       .  T
C2249      C2250   1.196       .  T
C2251      C2252   1.207       .  T
C2252      C2253   1.414       .  S
C2253      C2254   1.207       .  T
C2255      C2256   1.207       .  T
C2256      C2257   1.414       .  S
C2257      C2258   1.207       .  T
C2259      C2260   1.210       .  T
C2260      C2261   1.418       .  S
C2261      C2262   1.210       .  T
C2263      C2264   1.197       .  T
C2269      N2270   1.360       .  A
C2269      N2274   1.369       .  A
C2269      C2348   1.472       .  S
N2270      C2271   1.356       .  A
C2271      N2272   1.358       .  A
C2271      C2404   1.471       .  S
N2272      C2273   1.358       .  A
C2273      N2274   1.366       .  A
C2275      N2276   1.370       .  A
C2275      N2280   1.361       .  A
N2276      C2277   1.367       .  A
C2277      N2278   1.357       .  A
C2277      C2342   1.482       .  S
N2278      C2279   1.355       .  A
C2279      N2280   1.353       .  A
C2279      C2382   1.468       .  S
C2281      N2282   1.349       .  A
C2281      N2286   1.351       .  A
C2281      C2591   1.412       .  S
N2282      C2283   1.349       .  A
C2283      N2284   1.352       .  A
C2283      C2587   1.414       .  S
C2285      C2589   1.418       .  S
O2287     Cr2305   2.012       .  S
O2287      C2295   1.262       .  A
O2288     Cr2305   1.977       .  S
O2288      C2289   1.257       .  A
C2289      C2579   1.437       .  S
C2289      O2290   1.264       .  A
O2290     Cr2306   2.011       .  S
O2291     Cr2306   1.996       .  S
O2291      C2292   1.268       .  A
C2292      C2453   1.468       .  S
C2292      O2293   1.264       .  A
O2293     Cr2307   1.985       .  S
O2294     Cr2307   1.972       .  S
O2294      C2295   1.254       .  A
C2295      C2583   1.441       .  S
O2296     Cr2305   1.975       .  S
O2297     Cr2305   2.014       .  S
O2297      C2298   1.268       .  A
C2298      O2299   1.264       .  A
O2299     Cr2306   2.007       .  S
O2300     Cr2306   1.980       .  S
O2300      C2301   1.254       .  A
C2301      C2592   1.419       .  S
O2303      C2304   1.267       .  A
C2304      C2355   1.470       .  S
Cr2305     O2308   1.779       .  S
Cr2306     O2308   1.786       .  S
Cr2307     O2308   1.777       .  S
O2309     Cr2327   1.983       .  S
O2309      C2317   1.257       .  A
O2310     Cr2327   2.005       .  S
O2310      C2311   1.261       .  A
C2311      C2575   1.437       .  S
C2311      O2312   1.254       .  A
O2312     Cr2328   1.971       .  S
O2313     Cr2328   1.999       .  S
O2313      C2314   1.268       .  A
C2314      C2459   1.469       .  S
C2314      O2315   1.267       .  A
O2315     Cr2329   1.987       .  S
O2316     Cr2329   2.005       .  S
O2316      C2317   1.261       .  A
C2317      C2582   1.437       .  S
O2318     Cr2327   2.010       .  S
O2318      C2326   1.269       .  A
O2319     Cr2327   1.975       .  S
O2319      C2320   1.260       .  A
C2320      C2353   1.474       .  S
C2320      O2321   1.269       .  A
O2321     Cr2328   2.020       .  S
O2322     Cr2328   1.972       .  S
O2322      C2323   1.257       .  A
C2323      C2588   1.420       .  S
C2323      O2324   1.253       .  A
O2324     Cr2329   1.979       .  S
O2325     Cr2329   1.993       .  S
O2325      C2326   1.262       .  A
Cr2327     O2330   1.780       .  S
Cr2328     O2330   1.775       .  S
Cr2329     O2330   1.785       .  S
O2331     Cr2349   2.008       .  S
O2331      C2339   1.261       .  A
O2332     Cr2349   1.989       .  S
O2332      C2333   1.259       .  A
C2333      C2586   1.442       .  S
C2333      O2334   1.262       .  A
O2334     Cr2350   2.007       .  S
O2335     Cr2350   1.991       .  S
O2335      C2336   1.267       .  A
C2336      C2537   1.467       .  S
C2336      O2337   1.266       .  A
O2337     Cr2351   1.991       .  S
O2338     Cr2351   1.969       .  S
O2338      C2339   1.254       .  A
C2339      C2578   1.437       .  S
O2340     Cr2349   1.985       .  S
O2340      C2348   1.263       .  A
O2341     Cr2349   2.010       .  S
C2342      O2343   1.264       .  A
C2345      C2590   1.423       .  S
C2345      O2346   1.256       .  A
O2346     Cr2351   1.971       .  S
O2347     Cr2351   2.007       .  S
O2347      C2348   1.265       .  A
Cr2349     O2352   1.780       .  S
Cr2350     O2352   1.786       .  S
Cr2351     O2352   1.776       .  S
C2353      N2354   1.367       .  A
C2353      N2358   1.362       .  A
N2354      C2355   1.365       .  A
C2355      N2356   1.353       .  A
N2356      C2357   1.354       .  A
C2357      N2358   1.358       .  A
C2357      C2426   1.467       .  S
C2359      N2360   1.361       .  A
C2359      N2364   1.367       .  A
C2359      C2438   1.472       .  S
N2360      C2361   1.356       .  A
C2361      N2362   1.356       .  A
C2361      C2494   1.467       .  S
N2362      C2363   1.354       .  A
C2363      N2364   1.365       .  A
C2363      C2388   1.472       .  S
C2365      N2370   1.369       .  A
C2365      C2410   1.474       .  S
N2366      C2367   1.357       .  A
C2367      N2368   1.356       .  A
C2367      C2472   1.471       .  S
C2369      N2370   1.366       .  A
C2369      C2394   1.484       .  S
C2371      N2372   1.351       .  A
C2371      N2376   1.349       .  A
C2371      C2573   1.412       .  S
N2372      C2373   1.350       .  A
C2373      N2374   1.352       .  A
C2373      C2570   1.418       .  S
N2374      C2375   1.352       .  A
C2375      N2376   1.349       .  A
C2375      C2572   1.415       .  S
O2377     Cr2395   1.975       .  S
O2378     Cr2395   2.014       .  S
O2378      C2379   1.263       .  A
C2379      C2565   1.444       .  S
C2379      O2380   1.254       .  A
O2380     Cr2396   1.973       .  S
O2381     Cr2396   1.987       .  S
O2381      C2382   1.264       .  A
C2382      O2383   1.268       .  A
O2383     Cr2397   1.994       .  S
O2384     Cr2397   2.010       .  S
C2385      C2564   1.435   1_455  S
O2386     Cr2395   2.013       .  S
O2386      C2394   1.268       .  A
O2387     Cr2395   1.976       .  S
O2387      C2388   1.261       .  A
C2388      O2389   1.267       .  A
O2389     Cr2396   2.017       .  S
O2390     Cr2396   1.969       .  S
O2390      C2391   1.257       .  A
C2391      C2574   1.420       .  S
C2391      O2392   1.254       .  A
O2392     Cr2397   1.980       .  S
O2393     Cr2397   2.005       .  S
O2393      C2394   1.263       .  A
Cr2395     O2398   1.780       .  S
Cr2396     O2398   1.778       .  S
Cr2397     O2398   1.786       .  S
O2399     Cr2417   1.990       .  S
O2399      C2407   1.260       .  A
O2400     Cr2417   2.005       .  S
C2401      C2557   1.436       .  S
O2402     Cr2418   1.971       .  S
O2403     Cr2418   1.993       .  S
O2403      C2404   1.266       .  A
C2404      O2405   1.268       .  A
O2405     Cr2419   1.994       .  S
O2406     Cr2419   2.011       .  S
O2406      C2407   1.263       .  A
C2407      C2568   1.445       .  S
O2408     Cr2417   2.007       .  S
O2408      C2416   1.267       .  A
O2409     Cr2417   1.985       .  S
O2409      C2410   1.263       .  A
C2410      O2411   1.266       .  A
O2411     Cr2418   2.010       .  S
O2412     Cr2418   1.971       .  S
O2412      C2413   1.257       .  A
C2413      C2569   1.423       .  S
C2413      O2414   1.255       .  A
O2414     Cr2419   1.986       .  S
O2415     Cr2419   2.005       .  S
O2415      C2416   1.264       .  A
C2416      C2443   1.482       .  S
Cr2417     O2420   1.782       .  S
Cr2418     O2420   1.778       .  S
Cr2419     O2420   1.786       .  S
O2421     Cr2439   2.004       .  S
O2421      C2429   1.260       .  A
O2422     Cr2439   1.982       .  S
O2422      C2423   1.256       .  A
C2423      C2561   1.435       .  S
C2423      O2424   1.260       .  A
O2424     Cr2440   2.004       .  S
O2425     Cr2440   1.986       .  S
O2425      C2426   1.267       .  A
C2426      O2427   1.269       .  A
O2427     Cr2441   1.998       .  S
O2428     Cr2441   1.970       .  S
O2428      C2429   1.254       .  A
C2429      C2560   1.436       .  S
O2430     Cr2439   1.974       .  S
O2430      C2438   1.260       .  A
O2431     Cr2439   2.010       .  S
O2431      C2432   1.269       .  A
C2432      C2447   1.475       .  S
C2432      O2433   1.263       .  A
O2433     Cr2440   1.992       .  S
O2434     Cr2440   1.980       .  S
O2434      C2435   1.252       .  A
C2435      C2571   1.422       .  S
C2435      O2436   1.257       .  A
O2436     Cr2441   1.974       .  S
O2437     Cr2441   2.018       .  S
O2437      C2438   1.268       .  A
Cr2439     O2442   1.781       .  S
Cr2440     O2442   1.786       .  S
Cr2441     O2442   1.775       .  S
C2443      N2444   1.357       .  A
C2443      N2448   1.366       .  A
N2444      C2445   1.355       .  A
C2445      N2446   1.353       .  A
C2445      C2516   1.469       .  S
N2446      C2447   1.361       .  A
C2447      N2448   1.369       .  A
C2449      N2450   1.369       .  A
C2449      C2478   1.478       .  S
N2450      C2451   1.367       .  A
C2451      C2506   1.479       .  S
N2452      C2453   1.354       .  A
C2453      N2454   1.355       .  A
C2455      N2456   1.370       .  A
C2455      C2484   1.475       .  S
N2456      C2457   1.366       .  A
C2457      C2522   1.483       .  S
N2458      C2459   1.355       .  A
C2459      N2460   1.357       .  A
C2461      N2462   1.352       .  A
C2461      N2466   1.349       .  A
C2461      C2551   1.412       .  S
N2462      C2463   1.350       .  A
C2463      N2464   1.352       .  A
C2463      C2555   1.418       .  S
N2464      C2465   1.352       .  A
C2465      N2466   1.349       .  A
C2465      C2554   1.414       .  S
O2467      C2475   1.260       .  A
O2468      C2469   1.259       .  A
C2469      C2543   1.440       .  S
C2469      O2470   1.263       .  A
O2471     Cr2486   1.991   1_455  S
O2471      C2472   1.267       .  A
C2472      O2473   1.267   1_455  A
O2473     Cr2487   1.998       .  S
O2474      C2475   1.254       .  A
C2475      C2547   1.437       .  S
C2478      O2479   1.264       .  A
O2479     Cr2486   2.000       .  S
O2480     Cr2486   1.987       .  S
O2480      C2481   1.255       .  A
C2481      C2556   1.423       .  S
C2481      O2482   1.256       .  A
O2482     Cr2487   1.969       .  S
O2483     Cr2487   2.016       .  S
O2483      C2484   1.268       .  A
Cr2485     O2488   1.781       .  S
Cr2486     O2488   1.784       .  S
Cr2487     O2488   1.777       .  S
O2489     Cr2507   1.985       .  S
O2489      C2497   1.257       .  A
O2490     Cr2507   2.007       .  S
O2490      C2491   1.261       .  A
C2491      C2550   1.437       .  S
C2491      O2492   1.254       .  A
O2492     Cr2508   1.969       .  S
O2493     Cr2508   1.993       .  S
O2493      C2494   1.267       .  A
C2494      O2495   1.267       .  A
O2495     Cr2509   1.990       .  S
O2496     Cr2509   2.006       .  S
O2496      C2497   1.260       .  A
C2497      C2542   1.439       .  S
C2500      C2535   1.472       .  S
O2501     Cr2508   2.014   1_545  S
O2502      C2503   1.258       .  A
C2503      C2553   1.421       .  S
C2503      O2504   1.252       .  A
O2505     Cr2509   1.996   1_545  S
Cr2507     O2510   1.780       .  S
Cr2508     O2510   1.774       .  S
Cr2509     O2510   1.787       .  S
O2511     Cr2529   2.011       .  S
O2511      C2519   1.262       .  A
O2512     Cr2529   1.980       .  S
O2512      C2513   1.258       .  A
C2513      C2539   1.439       .  S
C2513      O2514   1.264       .  A
O2514     Cr2530   2.012       .  S
O2515     Cr2530   1.992       .  S
O2515      C2516   1.268       .  A
C2516      O2517   1.264       .  A
O2517     Cr2531   1.990       .  S
O2518     Cr2531   1.970       .  S
O2518      C2519   1.253       .  A
C2519      C2546   1.439       .  S
C2522      O2523   1.263       .  A
O2523     Cr2530   2.004       .  S
O2524     Cr2530   1.981       .  S
O2524      C2525   1.255       .  A
C2525      C2552   1.419       .  S
C2525      O2526   1.257       .  A
O2526     Cr2531   1.967       .  S
O2527     Cr2531   2.018       .  S
O2527      C2528   1.268       .  A
C2528      C2533   1.473       .  S
Cr2529     O2532   1.779       .  S
Cr2530     O2532   1.785       .  S
Cr2531     O2532   1.778       .  S
C2533      N2534   1.365       .  A
N2534      C2535   1.367       .  A
N2536      C2537   1.356       .  A
C2537      N2538   1.357       .  A
C2539      C2540   1.208       .  T
C2540      C2541   1.416       .  S
C2541      C2542   1.208       .  T
C2543      C2544   1.208       .  T
C2544      C2545   1.416       .  S
C2545      C2546   1.208       .  T
C2547      C2548   1.207       .  T
C2548      C2549   1.414       .  S
C2549      C2550   1.207       .  T
C2551      C2552   1.196       .  T
C2553      C2554   1.197       .  T
C2555      C2556   1.198       .  T
C2557      C2558   1.206       .  T
C2559      C2560   1.206   1_545  T
C2561      C2562   1.206       .  T
C2562      C2563   1.412       .  S
C2563      C2564   1.206       .  T
C2565      C2566   1.211   1_565  T
C2567      C2568   1.211       .  T
C2569      C2570   1.198       .  T
C2571      C2572   1.197       .  T
C2573      C2574   1.196       .  T
C2575      C2576   1.207       .  T
C2576      C2577   1.414       .  S
C2577      C2578   1.207       .  T
C2579      C2580   1.207       .  T
C2580      C2581   1.414       .  S
C2581      C2582   1.207       .  T
C2583      C2584   1.210       .  T
C2584      C2585   1.418       .  S
C2585      C2586   1.210       .  T
C2587      C2588   1.197       .  T
