geometry optimzed in LAMMPS
_audit_creation_date              2020-11-30 
_audit_creation_method            'lammps2cif' 
_symmetry_space_group_name_H-M    'P1' 
_symmetry_Int_Tables_number       1 
_symmetry_cell_setting            triclinic 
loop_ 
_symmetry_equiv_pos_as_xyz 
  x,y,z 
_cell_length_a                    44.70929252 
_cell_length_b                    44.63833079028179 
_cell_length_c                    52.23244488132237 
_cell_angle_alpha                 90.36121861393806 
_cell_angle_beta                  89.43490471659331 
_cell_angle_gamma                 120.68039526292873 
loop_ 
_atom_site_label 
_atom_site_type_symbol 
_atom_site_fract_x 
_atom_site_fract_y 
_atom_site_fract_z 
_atom_site_charge 
C1          C  0.06724143  0.12835469  0.63634949     0.80300
N2          N  0.04319887  0.13164256  0.65068039    -0.78000
C3          C  0.04351795  0.12983023  0.67670986     0.82700
N4          N  0.06662490  0.12340654  0.68784991    -0.78000
C5          C  0.08952099  0.11875459  0.67424361     0.82800
N6          N  0.08983260  0.12086355  0.64828080    -0.79700
C7          C  0.05148133  0.34167379  0.63414842     0.80300
N8          N  0.07897625  0.36578403  0.64836472    -0.78000
C9          C  0.07524320  0.36751536  0.67414983     0.82700
N10         N  0.04427804  0.34620150  0.68530089    -0.78000
C11         C  0.01678100  0.32305974  0.67168746     0.82800
N12         N  0.02011072  0.32079136  0.64603261    -0.79700
C13         C  0.44511864  0.45881524  0.79557521     0.03200
C14         C  0.42440618  0.42201427  0.79610617    -0.13000
C15         C  0.43930653  0.40103880  0.79901399     0.00700
C16         C  0.47611167  0.41761655  0.80030792    -0.11500
C17         C  0.49793842  0.45431159  0.79887657     0.03200
C18         C  0.48182969  0.47458743  0.79679093    -0.10900
H19         H  0.39633930  0.40964691  0.79558619     0.08800
H20         H  0.48789609  0.40176959  0.80244828     0.06300
H21         H  0.49782988  0.50272779  0.79647322     0.06100
O22         O  0.31646838  0.00844795  0.77787642    -0.85300
O23         O  0.36932482  0.07271603  0.79500111    -0.82400
C24         C  0.39876147  0.09690230  0.80211788     0.98200
O25         O  0.42504981  0.09311090  0.80123137    -0.82400
O26         O  0.41249044  0.04306607  0.83703498    -0.85000
C27         C  0.39358105  0.01450201  0.84839475     1.02700
O28         O  0.37597971  0.98658921  0.83589129    -0.77800
O29         O  0.32371731  0.48515760  0.81260791    -0.78000
C30         C  0.30335538  0.99404551  0.79898353     1.02600
O31         O  0.36977964  0.51392671  0.74163646    -0.85300
O32         O  0.41131426  0.07552975  0.75261950    -0.82400
C33         C  0.43893377  0.07484893  0.74978862     0.98200
O34         O  0.44662362  0.05834445  0.76536539    -0.82400
O35         O  0.43916822  0.01087590  0.80310707    -0.85000
C36         C  0.42763029  0.48008136  0.79551965     1.02600
O37         O  0.39696626  0.46658571  0.78725197    -0.77800
O38         O  0.34134750  0.46508093  0.76365277    -0.78000
C39         C  0.35158609  0.48133385  0.74249692     1.02600
Cr40       Cr  0.36654432  0.03978568  0.76857524     1.93700
Cr41       Cr  0.42748294  0.04906987  0.80080283     1.93200
Cr42       Cr  0.36216272  0.47897061  0.79899552     1.39100
O43         O  0.38426547  0.02210756  0.78985007    -1.23100
O44         O  0.36319825  0.21392811  0.80490809    -0.85300
O45         O  0.30680730  0.21944976  0.79245754    -0.82400
C46         C  0.29501337  0.22427190  0.81302343     0.98200
O47         O  0.31165007  0.25282622  0.82495203    -0.82400
O48         O  0.37116154  0.30854163  0.84471539    -0.85000
C49         C  0.38756441  0.29649976  0.85645996     1.02700
O50         O  0.40539775  0.28633999  0.84427354    -0.77800
O51         O  0.41883260  0.25176669  0.80577558    -0.78000
C52         C  0.39380367  0.22099827  0.80895470     1.02600
O53         O  0.39880220  0.25346492  0.75963108    -0.85300
O54         O  0.34488943  0.26413465  0.75156387    -0.82400
C55         C  0.32651839  0.27781788  0.75464104     0.98200
O56         O  0.32337117  0.28840290  0.77662947    -0.82400
O57         O  0.38509277  0.34521900  0.79578063    -0.85000
C58         C  0.41687084  0.36206733  0.80220370     1.02600
O59         O  0.43012732  0.34591256  0.81216399    -0.77800
O60         O  0.43292394  0.30771626  0.77131841    -0.78000
C61         C  0.42346369  0.28387652  0.75476153     1.02600
Cr62       Cr  0.35504432  0.24082665  0.77891771     1.93700
Cr63       Cr  0.34984500  0.29748540  0.80959275     1.93200
Cr64       Cr  0.41830720  0.29652321  0.80767721     1.39100
O65         O  0.37410223  0.27839886  0.79878561    -1.23100
O66         O  0.17914426  0.07994560  0.79563875    -0.85300
O67         O  0.18229788  0.02204581  0.80995764    -0.82400
C68         C  0.17484989  0.99101746  0.81277041     0.98200
O69         O  0.14668366  0.46421683  0.80800866    -0.82400
O70         O  0.10899932  0.47698936  0.84427282    -0.85000
C71         C  0.09560385  0.99660089  0.85806521     1.02700
O72         O  0.08777915  0.01658642  0.84636439    -0.77800
O73         O  0.14482622  0.07536366  0.82725122    -0.78000
C74         C  0.17344617  0.09231941  0.81554494     1.02600
O75         O  0.13629636  0.04122096  0.75391454    -0.85300
O76         O  0.14920338  0.48529145  0.76121967    -0.82400
C77         C  0.11982645  0.45928912  0.75631106     0.98200
O78         O  0.09416220  0.45082371  0.77109358    -0.82400
O79         O  0.05225817  0.45598907  0.80923624    -0.85000
C80         C  0.03825687  0.47283157  0.80137027     1.02600
O81         O  0.05321181  0.00530235  0.79713662    -0.77800
O82         O  0.11190491  0.06439643  0.77742850    -0.78000
C83         C  0.12251216  0.05961694  0.75586528     1.02600
Cr84       Cr  0.15789857  0.03127254  0.78253452     1.93700
Cr85       Cr  0.10191040  0.46561213  0.80755486     1.93200
Cr86       Cr  0.10080913  0.03809448  0.81111025     1.39100
O87         O  0.11879839  0.01232651  0.80095499    -1.23100
C88         C  0.28213859  0.34401912  0.63027684     0.80300
N89         N  0.27647545  0.31779042  0.64666362    -0.78000
C90         C  0.28088731  0.32427826  0.67228995     0.82700
N91         N  0.29234880  0.35680258  0.68092929    -0.78000
C92         C  0.29893786  0.38295356  0.66495078     0.82800
N93         N  0.29386576  0.37678632  0.63952451    -0.79700
C94         C  0.21842385  0.43886778  0.29726531     0.80300
N95         N  0.19189329  0.43881384  0.31066789    -0.78000
C96         C  0.19205390  0.43862565  0.33673207     0.82700
N97         N  0.21812629  0.43813825  0.34896038    -0.78000
C98         C  0.24399835  0.43753025  0.33614953     0.82800
N99         N  0.24420285  0.43764947  0.31019254    -0.79700
C100        C  0.45154871  0.16835764  0.29978134     0.80300
N101        N  0.44903886  0.19166885  0.31547566    -0.78000
C102        C  0.45324798  0.19101199  0.34115729     0.82700
N103        N  0.46043703  0.16759188  0.35089724    -0.78000
C104        C  0.46397476  0.14501972  0.33595331     0.82800
N105        N  0.46000102  0.14549244  0.31018965    -0.79700
C106        C  0.11507209  0.28889380  0.46594596     0.03200
C107        C  0.09749647  0.25197953  0.46710396    -0.13000
C108        C  0.11585086  0.23389179  0.46733381     0.00700
C109        C  0.15250414  0.25357787  0.46635182    -0.11500
C110        C  0.17095664  0.29041975  0.46471942     0.03200
C111        C  0.15184690  0.30770125  0.46419993    -0.10900
H112        H  0.06937434  0.23725965  0.46845935     0.08800
H113        H  0.16682066  0.24000908  0.46690100     0.06300
H114        H  0.16568230  0.33589892  0.46367790     0.06100
O115        O  0.49444007  0.35165285  0.46854973    -0.85300
O116        O  0.05763547  0.41053331  0.45496107    -0.82400
C117        C  0.07225592  0.42329540  0.47598284     0.98200
O118        O  0.08341175  0.40764508  0.48937970    -0.82400
O119        O  0.08462512  0.35148001  0.51050152    -0.85000
C120        C  0.05628672  0.33302957  0.52267215     1.02700
O121        O  0.02838836  0.31450518  0.51070017    -0.77800
O122        O  0.47723338  0.29643267  0.47300525    -0.78000
C123        C  0.47133139  0.32129720  0.47486616     1.02600
O124        O  0.99845172  0.31595581  0.42591542    -0.85300
O125        O  0.06452747  0.36982336  0.41604765    -0.82400
C126        C  0.09658650  0.39079387  0.41896125     0.98200
O127        O  0.10991704  0.39739814  0.44119117    -0.82400
O128        O  0.10879452  0.33931483  0.46195778    -0.85000
C129        C  0.09501265  0.30756627  0.46818574     1.02600
O130        O  0.06427853  0.29147880  0.47714573    -0.77800
O131        O  0.01798242  0.28268741  0.43904707    -0.78000
C132        C  0.00080454  0.28912239  0.42332353     1.02600
Cr133      Cr  0.03066587  0.36103831  0.44343618     1.93700
Cr134      Cr  0.09321848  0.37168666  0.47485712     1.93200
Cr135      Cr  0.02445639  0.30036260  0.47455186     1.39100
O136        O  0.04979652  0.34432058  0.46420018    -1.23100
O137        O  0.04678800  0.04624509  0.47332898    -0.85300
O138        O  0.49523318  0.05502330  0.45461919    -0.82400
C139        C  0.48175734  0.05673789  0.47541123     0.98200
O140        O  0.49690559  0.08381802  0.48895430    -0.82400
O141        O  0.04940930  0.14006505  0.51195630    -0.85000
C142        C  0.06768205  0.13140111  0.52496784     1.02700
O143        O  0.08719322  0.12237637  0.51410566    -0.77800
O144        O  0.10186948  0.08435363  0.47957026    -0.78000
C145        C  0.07659730  0.05304791  0.48018325     1.02600
O146        O  0.08771833  0.08537375  0.43052342    -0.85300
O147        O  0.03756259  0.10005792  0.41776880    -0.82400
C148        C  0.01722595  0.11168526  0.41922053     0.98200
O149        O  0.00871826  0.11870721  0.44082747    -0.82400
O150        O  0.06554716  0.17642892  0.46319122    -0.85000
C151        C  0.09703424  0.19471481  0.46975316     1.02600
O152        O  0.11263646  0.18006031  0.47884806    -0.77800
O153        O  0.12159634  0.13937371  0.44260432    -0.78000
C154        C  0.11491059  0.11455843  0.42752549     1.02600
Cr155      Cr  0.04246511  0.07435051  0.44623270     1.93700
Cr156      Cr  0.03188477  0.12827713  0.47563203     1.93200
Cr157      Cr  0.10230501  0.13017744  0.47792530     1.39100
O158        O  0.05895241  0.11127907  0.46669179    -1.23100
O159        O  0.35240576  0.41622310  0.45491651    -0.85300
O160        O  0.35734316  0.35958750  0.47020799    -0.82400
C161        C  0.34934002  0.32872876  0.47508703     0.98200
O162        O  0.31862248  0.30388083  0.47118604    -0.82400
O163        O  0.28121550  0.31583371  0.50783101    -0.85000
C164        C  0.27179254  0.33438122  0.51986739     1.02700
O165        O  0.26355961  0.35379282  0.50795133    -0.77800
O166        O  0.32125969  0.41262341  0.48838292    -0.78000
C167        C  0.34835870  0.42961080  0.47489508     1.02600
O168        O  0.30837469  0.37648237  0.41507990    -0.85300
O169        O  0.32061509  0.32364394  0.42502904    -0.82400
C170        C  0.29064835  0.30002634  0.41862811     0.98200
O171        O  0.26534519  0.29116865  0.43386530    -0.82400
O172        O  0.22500168  0.29444767  0.47346677    -0.85000
C173        C  0.21005146  0.31019893  0.46574893     1.02600
O174        O  0.22804777  0.34211913  0.45983747    -0.77800
O175        O  0.28628029  0.40103032  0.43952799    -0.78000
C176        C  0.29513491  0.39541804  0.41761353     1.02600
Cr177      Cr  0.33168488  0.36752917  0.44309391     1.93700
Cr178      Cr  0.27398120  0.30472989  0.47083551     1.93200
Cr179      Cr  0.27618150  0.37522850  0.47303896     1.39100
O180        O  0.29368492  0.34932963  0.46250514    -1.23100
C181        C  0.22686880  0.17359764  0.30091425     0.80300
N182        N  0.25074698  0.20614924  0.30965882    -0.78000
C183        C  0.25394495  0.21287668  0.33510601     0.82700
N184        N  0.23308649  0.18780601  0.35145913    -0.78000
C185        C  0.20845096  0.15594768  0.34368715     0.82800
N186        N  0.20482664  0.14861803  0.31807338    -0.79700
C187        C  0.38563008  0.01833106  0.95938890     0.80300
N188        N  0.35103281  0.48828580  0.97163597    -0.78000
C189        C  0.34727156  0.49056540  0.99735971     0.82700
N190        N  0.37862708  0.02202756  0.01067059    -0.78000
C191        C  0.40831548  0.04567804  0.99905844     0.82800
N192        N  0.41170576  0.04431709  0.97335363    -0.79700
C193        C  0.37988671  0.28271602  0.96752921     0.80300
N194        N  0.35265616  0.28220076  0.98019006    -0.78000
C195        C  0.34929841  0.27759135  0.00595612     0.82700
N196        N  0.37211540  0.27234948  0.01872327    -0.78000
C197        C  0.39804543  0.27101349  0.00662266     0.82800
N198        N  0.40205547  0.27600467  0.98086434    -0.79700
C199        C  0.27267211  0.11208786  0.13191162     0.03200
C200        C  0.30948038  0.13058863  0.13251610    -0.13000
C201        C  0.32850135  0.11312667  0.13254199     0.00700
C202        C  0.31000830  0.07642154  0.13139837    -0.11500
C203        C  0.27323610  0.05679310  0.13092970     0.03200
C204        C  0.25487842  0.07504124  0.13116607    -0.10900
H205        H  0.32339532  0.15876436  0.13363424     0.08800
H206        H  0.32443422  0.06295174  0.13162806     0.06300
H207        H  0.22671254  0.06040240  0.13129914     0.06100
O208        O  0.01435313  0.22945651  0.13763147    -0.85300
O209        O  0.00647940  0.16848513  0.11767379    -0.82400
C210        C  0.00480137  0.15178003  0.13743326     0.98200
O211        O  0.97922132  0.14152239  0.15253805    -0.82400
O212        O  0.42377747  0.14047973  0.17563583    -0.85000
C213        C  0.43419781  0.16784128  0.18898543     1.02700
O214        O  0.44192094  0.19640171  0.17854730    -0.77800
O215        O  0.97786054  0.24755110  0.14509047    -0.78000
C216        C  0.00836031  0.25237136  0.14624569     1.02600
O217        O  0.47475287  0.23433776  0.09537280    -0.85300
O218        O  0.45984410  0.16877318  0.08083767    -0.82400
C219        C  0.44815500  0.13645461  0.08211865     0.98200
O220        O  0.44166499  0.12103400  0.10364036    -0.82400
O221        O  0.38528046  0.11966416  0.12789879    -0.85000
C222        C  0.36750074  0.13303640  0.13508526     1.02600
O223        O  0.38250316  0.16309197  0.14509394    -0.77800
O224        O  0.42085904  0.21096017  0.10777619    -0.78000
C225        C  0.44441037  0.22801595  0.09139436     1.02600
Cr226      Cr  0.98567172  0.19766618  0.11029355     1.93700
Cr227      Cr  0.43385584  0.13464772  0.13893656     1.93200
Cr228      Cr  0.43198258  0.20301460  0.14288955     1.39100
O229        O  0.45035695  0.17880325  0.13044700    -1.23100
O230        O  0.20708088  0.36982675  0.13711915    -0.85300
O231        O  0.14899485  0.37226975  0.12441394    -0.82400
C232        C  0.13702941  0.37735936  0.14481000     0.98200
O233        O  0.15301504  0.40626216  0.15621557    -0.82400
O234        O  0.21125490  0.46434654  0.17450677    -0.85000
C235        C  0.22862785  0.45370504  0.18650624     1.02700
O236        O  0.24718541  0.44428070  0.17446773    -0.77800
O237        O  0.26231644  0.40875957  0.13777323    -0.78000
C238        C  0.23781576  0.37786659  0.14215361     1.02600
O239        O  0.24079442  0.40783812  0.09083558    -0.85300
O240        O  0.18502868  0.41591618  0.08237242    -0.82400
C241        C  0.16583211  0.42880564  0.08522252     0.98200
O242        O  0.16190452  0.43916103  0.10706023    -0.82400
O243        O  0.22157145  0.49853647  0.12551479    -0.85000
C244        C  0.25309892  0.51702342  0.13202493     1.02600
O245        O  0.26874859  0.50224140  0.14060692    -0.77800
O246        O  0.27330206  0.46280265  0.10100083    -0.78000
C247        C  0.26394404  0.43843292  0.08487571     1.02600
Cr248      Cr  0.19701966  0.39460014  0.11034014     1.93700
Cr249      Cr  0.18915305  0.45069658  0.13982257     1.93200
Cr250      Cr  0.25954084  0.45307851  0.13772817     1.39100
O251        O  0.21502442  0.43302253  0.12926668    -1.23100
O252        O  0.15558440  0.18115940  0.14088092    -0.85300
O253        O  0.21786411  0.23789117  0.12583844    -0.82400
C254        C  0.23645871  0.25094630  0.14536954     0.98200
O255        O  0.24878090  0.23487708  0.15688831    -0.82400
O256        O  0.24754797  0.17654884  0.17600963    -0.85000
C257        C  0.22028931  0.16035098  0.18972758     1.02700
O258        O  0.19083709  0.14243363  0.17937815    -0.77800
O259        O  0.13806411  0.12588923  0.14400238    -0.78000
C260        C  0.13177007  0.15046925  0.14555647     1.02600
O261        O  0.15701507  0.14454063  0.09557562    -0.85300
O262        O  0.22155614  0.19850789  0.08429506    -0.82400
C263        C  0.25389337  0.21865709  0.08594473     0.98200
O264        O  0.26935020  0.22323271  0.10717844    -0.82400
O265        O  0.26661548  0.16265512  0.12626584    -0.85000
C266        C  0.25306478  0.13143884  0.13396433     1.02600
O267        O  0.22321993  0.11681597  0.14447686    -0.77800
O268        O  0.17543003  0.10955478  0.10749704    -0.78000
C269        C  0.15944173  0.11789483  0.09192794     1.02600
Cr270      Cr  0.18968577  0.18899259  0.11340446     1.93700
Cr271      Cr  0.25439225  0.19705009  0.14076649     1.93200
Cr272      Cr  0.18414178  0.12732171  0.14310590     1.39100
O273        O  0.20973047  0.17120527  0.13229815    -1.23100
C274        C  0.11125397  0.99997692  0.96856811     0.80300
N275        N  0.11396956  0.47658406  0.98034170    -0.78000
C276        C  0.12141861  0.48014583  0.00574478     0.82700
N277        N  0.11545154  0.99837996  0.02010836    -0.78000
C278        C  0.11294110  0.02421704  0.00928544     0.82800
N279        N  0.11109055  0.02536505  0.98334688    -0.79700
C280        C  0.15634140  0.10871486  0.04505420    -0.12200
C281        C  0.14255281  0.09615981  0.06949122     0.04800
C282        C  0.11328081  0.06273779  0.07220289    -0.07500
C283        C  0.10011997  0.04113469  0.05079114    -0.08300
C284        C  0.11667504  0.05191684  0.02675029    -0.02800
C285        C  0.14397648  0.08665206  0.02366590     0.04000
N286        N  0.16259183  0.09840618  0.00001373     0.66500
H287        H  0.17861497  0.13478740  0.04290908     0.15400
H288        H  0.07908123  0.01450333  0.05348693     0.15100
N289        N  0.09791498  0.04979834  0.09679581     0.74200
O290        O  0.16153802  0.12202379  0.98762768    -0.39200
O291        O  0.18583389  0.09121424  0.99473995    -0.39200
O292        O  0.07120410  0.05067497  0.10355998    -0.39900
O293        O  0.10829078  0.03358169  0.11029933    -0.39900
C294        C  0.21648634  0.32023386  0.16265990    -0.12200
C295        C  0.24405695  0.34961034  0.15108637     0.04800
C296        C  0.27415688  0.34819703  0.14471934    -0.07500
C297        C  0.27321893  0.31607425  0.14606553    -0.08300
C298        C  0.24286662  0.28549231  0.15390558    -0.02800
C299        C  0.21499172  0.28829284  0.16366656     0.04000
N300        N  0.18403574  0.25821264  0.17276201     0.66500
H301        H  0.19330519  0.32179138  0.17034961     0.15400
H302        H  0.29566449  0.31460049  0.13947076     0.15100
N303        N  0.30515443  0.37855259  0.13601633     0.74200
O304        O  0.18259443  0.24806546  0.19546846    -0.39200
O305        O  0.15665634  0.24525954  0.15962831    -0.39200
O306        O  0.32296731  0.40280278  0.15162734    -0.39900
O307        O  0.31777787  0.37862637  0.11429966    -0.39900
C308        C  0.16366107  0.43736108  0.03820916    -0.12200
C309        C  0.14815099  0.43245460  0.06259468     0.04800
C310        C  0.11762535  0.43419431  0.06518849    -0.07500
C311        C  0.10587321  0.44495220  0.04448436    -0.08300
C312        C  0.12399445  0.45416442  0.02108487    -0.02800
C313        C  0.15215521  0.44871175  0.01752402     0.04000
N314        N  0.17201509  0.45875275  0.99421926     0.66500
H315        H  0.18686746  0.43568579  0.03576319     0.15400
H316        H  0.08422326  0.44913683  0.04739455     0.15100
N317        N  0.09914523  0.42663512  0.08900738     0.74200
O318        O  0.18936217  0.49046808  0.98794266    -0.39200
O319        O  0.17650064  0.43681744  0.98206253    -0.39200
O320        O  0.09841094  0.45065473  0.10134579    -0.39900
O321        O  0.07971631  0.39538340  0.09585314    -0.39900
C322        C  0.07574326  0.13059744  0.12481928    -0.12200
C323        C  0.09548984  0.14289676  0.14713966     0.04800
C324        C  0.08270051  0.15365889  0.16788118    -0.07500
C325        C  0.05162673  0.15432071  0.16509667    -0.08300
C326        C  0.03332646  0.14457785  0.14188147    -0.02800
C327        C  0.04525221  0.13170656  0.12183422     0.04000
N328        N  0.02735442  0.12053196  0.09794332     0.66500
H329        H  0.08542766  0.12241208  0.10874664     0.15400
H330        H  0.04251651  0.16378891  0.18070538     0.15100
N331        N  0.10095179  0.16389303  0.19169364     0.74200
O332        O  0.03164396  0.14300804  0.08149274    -0.39200
O333        O  0.01546667  0.08942511  0.09083761    -0.39200
O334        O  0.10375860  0.18965770  0.20394337    -0.39900
O335        O  0.11080106  0.14485166  0.20192408    -0.39900
C336        C  0.06885614  0.28583733  0.16099593    -0.12200
C337        C  0.03845657  0.28586578  0.15500393     0.04800
C338        C  0.04016663  0.31827879  0.15251879    -0.07500
C339        C  0.07290649  0.34929820  0.15179871    -0.08300
C340        C  0.10361892  0.34831691  0.15442297    -0.02800
C341        C  0.10105976  0.31646270  0.16048899     0.04000
N342        N  0.13126918  0.31410428  0.16393153     0.66500
H343        H  0.06812098  0.26143849  0.16394689     0.15400
H344        H  0.07441600  0.37376321  0.14756653     0.15100
N345        N  0.00933643  0.31997228  0.14933615     0.74200
O346        O  0.14051454  0.31303119  0.18648977    -0.39200
O347        O  0.14099126  0.30215848  0.14579413    -0.39200
O348        O  0.98762942  0.31090510  0.16751602    -0.39900
O349        O  0.00635077  0.33532745  0.13019885    -0.39900
C350        C  0.26574106  0.22105982  0.03889516    -0.12200
C351        C  0.27379044  0.23776688  0.06285429     0.04800
C352        C  0.30136173  0.27254433  0.06446093    -0.07500
C353        C  0.32316749  0.28827107  0.04333712    -0.08300
C354        C  0.31793762  0.26987028  0.02039743    -0.02800
C355        C  0.28768723  0.23685934  0.01766456     0.04000
N356        N  0.28134228  0.21735155  0.99449617     0.66500
H357        H  0.24393301  0.19468288  0.03710954     0.15400
H358        H  0.34618369  0.31380706  0.04560730     0.15100
N359        N  0.30715788  0.29240024  0.08729702     0.74200
O360        O  0.29802106  0.20214461  0.98963813    -0.39200
O361        O  0.25641098  0.21207910  0.98033571    -0.39200
O362        O  0.33317689  0.30001208  0.10101969    -0.39900
O363        O  0.29089609  0.30836659  0.09054237    -0.39900
C364        C  0.40376452  0.21593564  0.05626489    -0.12200
C365        C  0.43611840  0.23870458  0.06705586     0.04800
C366        C  0.45927063  0.27016928  0.05415244    -0.07500
C367        C  0.44822949  0.27915531  0.03184512    -0.08300
C368        C  0.41527038  0.25662342  0.02169639    -0.02800
C369        C  0.39362421  0.22405103  0.03347732     0.04000
N370        N  0.35970419  0.20034316  0.02366205     0.66500
H371        H  0.38603547  0.19150667  0.06566265     0.15400
H372        H  0.46443614  0.30470557  0.02345275     0.15100
N373        N  0.49255358  0.29460917  0.06454373     0.74200
O374        O  0.35634749  0.18922969  0.00098085    -0.39200
O375        O  0.33326701  0.18904164  0.03803815    -0.39200
O376        O  0.01610907  0.29067934  0.06794629    -0.39900
O377        O  0.99545595  0.32510199  0.07363990    -0.39900
C378        C  0.31197259  0.43933256  0.02400468    -0.12200
C379        C  0.31504811  0.46854932  0.01168685     0.04800
C380        C  0.29702317  0.48430780  0.02175374    -0.07500
C381        C  0.27948721  0.47310970  0.04521248    -0.08300
C382        C  0.27895524  0.44581898  0.05874560    -0.02800
C383        C  0.29378329  0.42746250  0.04734169     0.04000
N384        N  0.29393146  0.39930207  0.06027194     0.66500
H385        H  0.32653852  0.42772415  0.01669909     0.15400
H386        H  0.26746365  0.48681801  0.05344322     0.15100
N387        N  0.30626181  0.02153625  0.01220707     0.74200
O388        O  0.26555304  0.37213586  0.06583959    -0.39200
O389        O  0.32179141  0.39866353  0.06144110    -0.39200
O390        O  0.28250743  0.01965388  0.99822269    -0.39900
O391        O  0.33019614  0.05091323  0.01982086    -0.39900
C392        C  0.43068900  0.10538280  0.01307851    -0.12200
C393        C  0.43275535  0.07519846  0.01468347     0.04800
C394        C  0.44434257  0.06785986  0.03745577    -0.07500
C395        C  0.44924629  0.08820888  0.05922725    -0.08300
C396        C  0.44416016  0.11670460  0.05835833    -0.02800
C397        C  0.43600299  0.12603390  0.03477332     0.04000
N398        N  0.42780772  0.15299660  0.03343935     0.66500
H399        H  0.42038316  0.11033822  0.99595170     0.15400
H400        H  0.45634756  0.08126935  0.07704076     0.15100
N401        N  0.44810143  0.03788170  0.03911159     0.74200
O402        O  0.95759996  0.18231905  0.02524022    -0.39200
O403        O  0.39756889  0.14620561  0.03941160    -0.39200
O404        O  0.46391692  0.03169722  0.02162290    -0.39900
O405        O  0.43576646  0.01757757  0.05803766    -0.39900
C406        C  0.25436115  0.18886062  0.25762158    -0.12200
C407        C  0.22501197  0.16689837  0.27270742     0.04800
C408        C  0.19475303  0.14116532  0.26013864    -0.07500
C409        C  0.19388586  0.13940774  0.23325236    -0.08300
C410        C  0.22293230  0.16219409  0.21822887    -0.02800
C411        C  0.25369126  0.18675625  0.23087114     0.04000
N412        N  0.28427539  0.21077711  0.21694059     0.66500
H413        H  0.27818538  0.20847348  0.26660397     0.15400
H414        H  0.17016854  0.11987089  0.22410648     0.15100
N415        N  0.16448379  0.11674696  0.27411250     0.74200
O416        O  0.28787203  0.23927933  0.20948713    -0.39200
O417        O  0.30978886  0.20607103  0.21570956    -0.39200
O418        O  0.13642961  0.11658795  0.27110663    -0.39900
O419        O  0.16349453  0.09031123  0.28357054    -0.39900
C420        C  0.25914290  0.27938845  0.37748239    -0.12200
C421        C  0.28602656  0.28338939  0.39333969     0.04800
C422        C  0.30896959  0.27262307  0.38434782    -0.07500
C423        C  0.30226765  0.25458817  0.36107794    -0.08300
C424        C  0.27340604  0.24770588  0.34633950    -0.02800
C425        C  0.25336552  0.26261938  0.35370736     0.04000
N426        N  0.22390467  0.25627369  0.33883637     0.66500
H427        H  0.24225961  0.28885933  0.38375860     0.15400
H428        H  0.31715184  0.24234565  0.35607797     0.15100
N429        N  0.33667602  0.27616404  0.39997591     0.74200
O430        O  0.19427537  0.24348596  0.34922748    -0.39200
O431        O  0.22703199  0.26134203  0.31496392    -0.39200
O432        O  0.33333423  0.24998665  0.41170558    -0.39900
O433        O  0.36620175  0.30349547  0.39857314    -0.39900
C434        C  0.38424213  0.48879081  0.45864873    -0.12200
C435        C  0.37518042  0.46658067  0.47978187     0.04800
C436        C  0.39765045  0.47772761  0.50108215    -0.07500
C437        C  0.43033493  0.50903937  0.49946101    -0.08300
C438        C  0.44870750  0.02570536  0.48327995    -0.02800
C439        C  0.41691649  0.02519296  0.48464190     0.04000
N440        N  0.41624632  0.05670283  0.48219516     0.66500
H441        H  0.36744428  0.48047875  0.44210738     0.15400
H442        H  0.44848695  0.51644129  0.51513035     0.15100
N443        N  0.38858146  0.45673445  0.52366722     0.74200
O444        O  0.42018577  0.07049085  0.46046060    -0.39200
O445        O  0.40792775  0.06860479  0.50117935    -0.39200
O446        O  0.41075089  0.45145394  0.53422399    -0.39900
O447        O  0.36007696  0.44741165  0.53497586    -0.39900
C448        C  0.12551931  0.10552909  0.38213870    -0.12200
C449        C  0.13896200  0.11873117  0.40656422     0.04800
C450        C  0.17512813  0.13660451  0.41021919    -0.07500
C451        C  0.19691830  0.14195167  0.38932550    -0.08300
C452        C  0.18396526  0.13375406  0.36413816    -0.02800
C453        C  0.14768843  0.11375750  0.36077574     0.04000
N454        N  0.13282164  0.10497535  0.33586582     0.66500
H455        H  0.09763498  0.09137400  0.37924047     0.15400
H456        H  0.22475004  0.15643388  0.39253665     0.15100
N457        N  0.19037456  0.15173490  0.43445306     0.74200
O458        O  0.11951099  0.07396681  0.32810087    -0.39200
O459        O  0.12519262  0.12523939  0.32483377    -0.39200
O460        O  0.18080985  0.13355562  0.45453877    -0.39900
O461        O  0.21443520  0.18322256  0.43566599    -0.39900
C462        C  0.37614165  0.29206686  0.47080540    -0.12200
C463        C  0.37686524  0.32123465  0.48182527     0.04800
C464        C  0.40614139  0.34491661  0.49606799    -0.07500
C465        C  0.43525832  0.34108005  0.49668159    -0.08300
C466        C  0.43669786  0.31546987  0.48200795    -0.02800
C467        C  0.40602131  0.28930607  0.47038004     0.04000
N468        N  0.40565967  0.26188681  0.45588891     0.66500
H469        H  0.35350384  0.27316763  0.46026720     0.15400
H470        H  0.45786929  0.35965643  0.50720479     0.15100
N471        N  0.40739825  0.37392993  0.50887278     0.74200
O472        O  0.38651619  0.23079195  0.46317179    -0.39200
O473        O  0.41806151  0.26788367  0.43345433    -0.39200
O474        O  0.40185516  0.37247643  0.53268845    -0.39900
O475        O  0.42040768  0.40286611  0.49754789    -0.39900
C476        C  0.10789156  0.48817214  0.47852058    -0.12200
C477        C  0.07648607  0.45729093  0.48372781     0.04800
C478        C  0.04737461  0.45968118  0.49104695    -0.07500
C479        C  0.04927149  0.49192127  0.49155073    -0.08300
C480        C  0.08198703  0.02343796  0.48603125    -0.02800
C481        C  0.10976377  0.52071801  0.47864080     0.04000
N482        N  0.14397235  0.05635122  0.47271788     0.66500
H483        H  0.13051222  0.48681531  0.47276265     0.15400
H484        H  0.02581924  0.49249296  0.49597573     0.15100
N485        N  0.01452084  0.42928360  0.49577410     0.74200
O486        O  0.16421042  0.07711651  0.48945670    -0.39200
O487        O  0.15427799  0.05953128  0.44977274    -0.39200
O488        O  0.00216931  0.42398402  0.51821533    -0.39900
O489        O  0.99417057  0.41534363  0.47716719    -0.39900
C490        C  0.51403796  0.14338696  0.35201155    -0.12200
C491        C  0.47780882  0.12550486  0.34878092     0.04800
C492        C  0.45647324  0.10058048  0.36722380    -0.07500
C493        C  0.47099255  0.09713136  0.38988929    -0.08300
C494        C  0.50684125  0.11752511  0.39413602    -0.02800
C495        C  0.02148615  0.13236893  0.37375630     0.04000
N496        N  0.05860639  0.15012313  0.37455819     0.66500
H497        H  0.02142073  0.15332810  0.33683912     0.15400
H498        H  0.45416136  0.07884871  0.40438300     0.15100
N499        N  0.41961496  0.08070722  0.36399944     0.74200
O500        O  0.07474964  0.13904146  0.36135774    -0.39200
O501        O  0.07527084  0.17956651  0.38522880    -0.39200
O502        O  0.40654899  0.05472167  0.34917543    -0.39900
O503        O  0.40001625  0.08599180  0.37849172    -0.39900
C504        C  0.44395243  0.20591483  0.38440208    -0.12200
C505        C  0.45510530  0.21740834  0.35923509     0.04800
C506        C  0.47655134  0.25342513  0.35465227    -0.05100
C507        C  0.98781653  0.27702586  0.37697626    -0.08300
C508        C  0.48281313  0.26385002  0.40074103    -0.02800
C509        C  0.45855046  0.22838200  0.40521127     0.04000
N510        N  0.44939775  0.21432452  0.43059452     0.66500
H511        H  0.42693277  0.17833731  0.38813873     0.15400
H512        H  0.00552937  0.30443190  0.37313795     0.15100
N513        N  0.98279050  0.26663891  0.33083579     0.74200
O514        O  0.41772439  0.19521641  0.43657992    -0.39200
O515        O  0.47206090  0.21378562  0.44447207    -0.39200
O516        O  0.47915288  0.28680492  0.31979516    -0.39900
O517        O  0.01022538  0.26998291  0.32100546    -0.39900
C518        C  0.44446968  0.14122154  0.25636225    -0.12200
C519        C  0.44595092  0.16819511  0.27148362     0.04800
C520        C  0.44270822  0.19453285  0.25896236    -0.07500
C521        C  0.43863171  0.19352188  0.23233158    -0.08300
C522        C  0.43736324  0.16671834  0.21732273    -0.02800
C523        C  0.44044523  0.14034630  0.22968555     0.04000
N524        N  0.93745076  0.11104229  0.21820056     0.66500
H525        H  0.94193050  0.11900056  0.26795837     0.15400
H526        H  0.43634058  0.21407508  0.22334779     0.15100
N527        N  0.44410382  0.22304244  0.27264861     0.74200
O528        O  0.96535466  0.11578834  0.20820596    -0.39200
O529        O  0.91145567  0.08058903  0.21969823    -0.39200
O530        O  0.46893621  0.25353453  0.26834526    -0.39900
O531        O  0.41705006  0.21888449  0.28376501    -0.39900
C532        C  0.28178856  0.45444802  0.37327753    -0.12200
C533        C  0.26860673  0.43307420  0.35160682     0.04800
C534        C  0.26977756  0.40218830  0.35019701    -0.07500
C535        C  0.28102119  0.39170691  0.37146220    -0.08300
C536        C  0.28960006  0.41077590  0.39448693    -0.02800
C537        C  0.29149822  0.44334815  0.39491219     0.04000
N538        N  0.30175380  0.46493625  0.41728019     0.66500
H539        H  0.28090466  0.47825554  0.37446230     0.15400
H540        H  0.27991012  0.36687936  0.37071241     0.15100
N541        N  0.25536507  0.37895917  0.32889422     0.74200
O542        O  0.32770076  0.49543763  0.41588076    -0.39200
O543        O  0.28001146  0.45768209  0.43522431    -0.39200
O544        O  0.27406218  0.37026241  0.31640299    -0.39900
O545        O  0.22285721  0.36221671  0.32571678    -0.39900
C546        C  0.17241462  0.45259636  0.37646003    -0.12200
C547        C  0.16316962  0.43454257  0.35305042     0.04800
C548        C  0.12952049  0.40545285  0.35034285    -0.07500
C549        C  0.10738995  0.39255574  0.37178688    -0.08300
C550        C  0.11852235  0.40808853  0.39607788    -0.02800
C551        C  0.15080816  0.43945056  0.39797217     0.04000
N552        N  0.16298881  0.45734795  0.42181906     0.66500
H553        H  0.19824984  0.47514102  0.37877995     0.15400
H554        H  0.08235254  0.36889913  0.36972214     0.15100
N555        N  0.11906535  0.38635152  0.32687338     0.74200
O556        O  0.18351414  0.45243086  0.43512146    -0.39200
O557        O  0.15890443  0.48269230  0.42695472    -0.39200
O558        O  0.12307169  0.36057761  0.32360285    -0.39900
O559        O  0.10195791  0.39249430  0.31083463    -0.39900
C560        C  0.20632155  0.45965425  0.25655953    -0.12200
C561        C  0.22002470  0.44144936  0.26887463     0.04800
C562        C  0.23693982  0.42791655  0.25391180    -0.07500
C563        C  0.24029638  0.43319681  0.22741277    -0.08300
C564        C  0.22666205  0.45142249  0.21498818    -0.02800
C565        C  0.20954504  0.46483463  0.22997441     0.04000
N566        N  0.19582696  0.48435493  0.21868643     0.66500
H567        H  0.19367606  0.47069237  0.26768678     0.15400
H568        H  0.25282048  0.42190889  0.21643146     0.15100
N569        N  0.24923687  0.40707758  0.26506929     0.74200
O570        O  0.16368654  0.46980976  0.21426839    -0.39200
O571        O  0.21473582  0.51700663  0.21672075    -0.39200
O572        O  0.22790923  0.37556593  0.27024344    -0.39900
O573        O  0.28144085  0.41813558  0.26546898    -0.39900
C574        C  0.28459633  0.31625104  0.56170255    -0.12200
C575        C  0.27093075  0.33392726  0.54839425     0.04800
C576        C  0.25856735  0.35250713  0.56274044    -0.07500
C577        C  0.26177574  0.35457391  0.58936612    -0.08300
C578        C  0.27644463  0.33791862  0.60245351    -0.02800
C579        C  0.28726766  0.31797258  0.58847971     0.04000
N580        N  0.30326086  0.30138726  0.60097958     0.66500
H581        H  0.29430065  0.30184069  0.55128500     0.15400
H582        H  0.25285794  0.36958638  0.59992140     0.15100
N583        N  0.24285090  0.36969868  0.55070394     0.74200
O584        O  0.28524108  0.26964904  0.60702712    -0.39200
O585        O  0.33594642  0.31696084  0.60271841    -0.39200
O586        O  0.21035302  0.35358891  0.54754643    -0.39900
O587        O  0.26039983  0.40217318  0.54708942    -0.39900
C588        C  0.10972747  0.02809887  0.89969861    -0.12200
C589        C  0.09590016  0.99639090  0.88649147     0.04800
C590        C  0.08667172  0.96584092  0.90043857    -0.07500
C591        C  0.09234553  0.96768169  0.92694844    -0.08300
C592        C  0.10692297  0.99957295  0.94020465    -0.02800
C593        C  0.11575408  0.03006565  0.92614991     0.04000
N594        N  0.10115290  0.55212464  0.93800930     0.66500
H595        H  0.11795085  0.05194111  0.88915522     0.15400
H596        H  0.08458981  0.94380202  0.93727898     0.15100
N597        N  0.07034938  0.93257103  0.88807510     0.74200
O598        O  0.16551034  0.07673095  0.94331064    -0.39200
O599        O  0.07276066  0.54663897  0.94756611    -0.39200
O600        O  0.08467791  0.91446535  0.88824134    -0.39900
O601        O  0.03986475  0.91961193  0.87958166    -0.39900
C602        C  0.26209206  0.16662967  0.83379115    -0.12200
C603        C  0.26157601  0.19480058  0.82251047     0.04800
C604        C  0.22948166  0.18998686  0.81416379    -0.07500
C605        C  0.19923048  0.15675644  0.81558743    -0.08300
C606        C  0.20082372  0.12770717  0.82385220    -0.02800
C607        C  0.23224048  0.13321586  0.83420664     0.04000
N608        N  0.23496592  0.10460007  0.84328376     0.66500
H609        H  0.28659998  0.16983778  0.84001091     0.15400
H610        H  0.17521813  0.15301395  0.80778301     0.15100
N611        N  0.22802756  0.21743617  0.80138945     0.74200
O612        O  0.24184642  0.08720119  0.82769900    -0.39200
O613        O  0.23733696  0.10118355  0.86701005    -0.39200
O614        O  0.23514374  0.22246773  0.77779854    -0.39900
O615        O  0.21452472  0.23286102  0.81256483    -0.39900
C616        C  0.41470053  0.29829292  0.89850502    -0.12200
C617        C  0.38603210  0.29448635  0.88488061     0.04800
C618        C  0.35579018  0.28738982  0.89864624    -0.07500
C619        C  0.35463677  0.28403907  0.92533875    -0.08300
C620        C  0.38317072  0.28757427  0.93911913    -0.02800
C621        C  0.41368288  0.29519652  0.92529191     0.04000
N622        N  0.44419622  0.30065303  0.93804957     0.66500
H623        H  0.43824291  0.30395832  0.88830523     0.15400
H624        H  0.33074053  0.27785344  0.93521350     0.15100
N625        N  0.32515305  0.28131110  0.88572068     0.74200
O626        O  0.44970391  0.27573497  0.94021585    -0.39200
O627        O  0.46832019  0.33129366  0.94284296    -0.39200
O628        O  0.30109419  0.25043901  0.88152136    -0.39900
O629        O  0.31935866  0.30597527  0.88307379    -0.39900
C630        C  0.30076253  0.28467005  0.68637023    -0.12200
C631        C  0.28022809  0.29952605  0.69108889     0.04800
C632        C  0.26987939  0.30092760  0.71649426    -0.07500
C633        C  0.28427027  0.29249823  0.73679928    -0.08300
C634        C  0.30809297  0.28138852  0.73237695    -0.02800
C635        C  0.31440753  0.27513988  0.70675066     0.04000
N636        N  0.33615854  0.26110102  0.70097242     0.66500
H637        H  0.30887860  0.28339619  0.66696694     0.15400
H638        H  0.27759698  0.29590438  0.75617048     0.15100
N639        N  0.24726653  0.31409829  0.72200804     0.74200
O640        O  0.32344268  0.22854777  0.70141004    -0.39200
O641        O  0.36600750  0.28040969  0.69140844    -0.39200
O642        O  0.21533654  0.29584358  0.71686410    -0.39900
O643        O  0.25821181  0.34179003  0.73481571    -0.39900
C644        C  0.37735572  0.13156834  0.82443814    -0.12200
C645        C  0.40274406  0.13079014  0.80895346     0.04800
C646        C  0.42896770  0.16185514  0.79757619    -0.07500
C647        C  0.42766264  0.19237534  0.80011705    -0.08300
C648        C  0.40046089  0.19240054  0.81374429    -0.02800
C649        C  0.37635481  0.16232076  0.82743846     0.04000
N650        N  0.35074864  0.16264917  0.84413454     0.66500
H651        H  0.35782165  0.10788501  0.83378353     0.15400
H652        H  0.44615911  0.21524059  0.78939960     0.15100
N653        N  0.45424409  0.16179674  0.78062537     0.74200
O654        O  0.32198236  0.13507098  0.84804904    -0.39200
O655        O  0.35832797  0.18942357  0.85727399    -0.39200
O656        O  0.44739021  0.15557765  0.75713668    -0.39900
O657        O  0.48516165  0.17435496  0.78803059    -0.39900
C658        C  0.21439439  0.47092416  0.78813870    -0.12200
C659        C  0.20365430  0.98379963  0.81334435     0.04800
C660        C  0.22877786  0.99625722  0.83291507    -0.07500
C661        C  0.26060066  0.99728631  0.82882838    -0.08300
C662        C  0.26759024  0.98610375  0.80545992    -0.02800
C663        C  0.24595659  0.47195868  0.78460258     0.04000
N664        N  0.25243738  0.46009659  0.76080145     0.66500
H665        H  0.19630311  0.46286065  0.77236466     0.15400
H666        H  0.28043766  0.00820626  0.84343824     0.15100
N667        N  0.22232234  0.00808722  0.85676215     0.74200
O668        O  0.26086702  0.43707612  0.76081908    -0.39200
O669        O  0.24453679  0.46840554  0.73995757    -0.39200
O670        O  0.19393150  0.98955897  0.86855475    -0.39900
O671        O  0.24593007  0.03555649  0.86712263    -0.39900
C672        C  0.35967247  0.48369987  0.91694373    -0.12200
C673        C  0.38919720  0.01684163  0.93103084     0.04800
C674        C  0.41811137  0.04306685  0.91717415    -0.07500
C675        C  0.41917881  0.04134304  0.89045626    -0.08300
C676        C  0.39217975  0.01385030  0.87679152    -0.02800
C677        C  0.36222218  0.48278510  0.89017562     0.04000
N678        N  0.33387272  0.45554312  0.87633658     0.66500
H679        H  0.33635869  0.46346266  0.92624683     0.15400
H680        H  0.44133355  0.06199182  0.88032515     0.15100
N681        N  0.44649292  0.07207807  0.92967942     0.74200
O682        O  0.33201767  0.42655341  0.87346021    -0.39200
O683        O  0.30830175  0.45865061  0.87039289    -0.39200
O684        O  0.47457690  0.07239290  0.93296820    -0.39900
O685        O  0.44546005  0.09945202  0.93365436    -0.39900
C686        C  0.30898831  0.45324192  0.70782290    -0.12200
C687        C  0.34115916  0.46217213  0.71837056     0.04800
C688        C  0.36281852  0.45240651  0.70581429    -0.07500
C689        C  0.35035613  0.43065663  0.68441249    -0.08300
C690        C  0.31621544  0.41779819  0.67597417    -0.02800
C691        C  0.29609044  0.43062143  0.68688017     0.04000
N692        N  0.26116564  0.41778525  0.67880576     0.66500
H693        H  0.29303994  0.46216967  0.71676556     0.15400
H694        H  0.36572397  0.42030389  0.67641127     0.15100
N695        N  0.39596208  0.46148499  0.71603654     0.74200
O696        O  0.23667098  0.39021618  0.68851237    -0.39200
O697        O  0.25428654  0.43665724  0.66511952    -0.39200
O698        O  0.39757696  0.44389360  0.73421301    -0.39900
O699        O  0.42335837  0.48235352  0.70399018    -0.39900
C700        C  0.97100630  0.32748809  0.69356906    -0.12200
C701        C  0.48104670  0.30487791  0.68454484     0.04800
C702        C  0.46937028  0.27322304  0.69746946    -0.07500
C703        C  0.44935740  0.26612745  0.71986802    -0.08300
C704        C  0.44166226  0.29071776  0.72993765    -0.02800
C705        C  0.45121538  0.32123225  0.71597013     0.04000
N706        N  0.44325622  0.34661847  0.72523814     0.66500
H707        H  0.98002875  0.35227832  0.68415668     0.15400
H708        H  0.44158147  0.24225301  0.73023286     0.15100
N709        N  0.48054773  0.24978478  0.68947915     0.74200
O710        O  0.96129810  0.36836110  0.74017308    -0.39200
O711        O  0.41959015  0.34952744  0.71470430    -0.39200
O712        O  0.50116491  0.24556534  0.70322550    -0.39900
O713        O  0.46668671  0.23034254  0.67031371    -0.39900
C714        C  0.11905245  0.45141053  0.70914705    -0.12200
C715        C  0.11658148  0.43803367  0.73383013     0.04800
C716        C  0.11108548  0.40437464  0.73676612    -0.07500
C717        C  0.10436561  0.38321579  0.71527688    -0.08300
C718        C  0.10140185  0.39458608  0.69089343    -0.02800
C719        C  0.11113889  0.42975874  0.68758488     0.04000
N720        N  0.10892985  0.44259376  0.66310444     0.66500
H721        H  0.12446873  0.47783657  0.70677686     0.15400
H722        H  0.09703954  0.35625426  0.71809391     0.15100
N723        N  0.10994525  0.39058969  0.76161182     0.74200
O724        O  0.07995051  0.43709991  0.65524110    -0.39200
O725        O  0.13643722  0.46439228  0.65160021    -0.39200
O726        O  0.08099730  0.36976911  0.77188966    -0.39900
O727        O  0.13761962  0.39552067  0.77171794    -0.39900
C728        C  0.02434422  0.31557141  0.59209092    -0.12200
C729        C  0.05438355  0.33894813  0.60572151     0.04800
C730        C  0.08574200  0.35896772  0.59170110    -0.07500
C731        C  0.08600073  0.35614593  0.56487203    -0.08300
C732        C  0.05562408  0.33341435  0.55129840    -0.02800
C733        C  0.02465435  0.31247582  0.56545050     0.04000
N734        N  0.99298742  0.28781740  0.55320012     0.66500
H735        H  0.99994897  0.29937355  0.60207390     0.15400
H736        H  0.11019629  0.37227258  0.55462047     0.15100
N737        N  0.11763970  0.38235590  0.60420332     0.74200
O738        O  0.98695967  0.25744566  0.54860848    -0.39200
O739        O  0.96909991  0.29467967  0.55044874    -0.39200
O740        O  0.13843068  0.37221754  0.60985440    -0.39900
O741        O  0.12772843  0.41438031  0.60533053    -0.39900
C742        C  0.12656387  0.12758164  0.71079710    -0.12200
C743        C  0.10985438  0.10752926  0.68904102     0.04800
C744        C  0.10133614  0.07248202  0.68819847    -0.07500
C745        C  0.10659634  0.05734642  0.70990889    -0.08300
C746        C  0.12011716  0.07673906  0.73252190    -0.02800
C747        C  0.13163675  0.11249167  0.73242405     0.04000
N748        N  0.14874828  0.13378998  0.75414420     0.66500
H749        H  0.13308052  0.15452760  0.71176873     0.15400
H750        H  0.09825142  0.02990486  0.70957332     0.15100
N751        N  0.08375327  0.05103969  0.66661390     0.74200
O752        O  0.17936899  0.14137204  0.75917571    -0.39200
O753        O  0.13516558  0.14846849  0.76626711    -0.39200
O754        O  0.10114832  0.04936528  0.64807457    -0.39900
O755        O  0.05125980  0.03055605  0.66747052    -0.39900
C756        C  0.48018297  0.10509555  0.68426169    -0.12200
C757        C  0.01581830  0.12753204  0.69370700     0.04800
C758        C  0.02364801  0.13592012  0.71994625    -0.07500
C759        C  0.49563515  0.12374843  0.73577443    -0.08300
C760        C  0.46317625  0.09553948  0.72918921    -0.02800
C761        C  0.45449405  0.08777986  0.70313663     0.04000
N762        N  0.42067614  0.06052882  0.69577577     0.66500
H763        H  0.47464327  0.09598297  0.66463525     0.15400
H764        H  0.50183418  0.13100600  0.75570307     0.15100
N765        N  0.05824107  0.16072014  0.72798165     0.74200
O766        O  0.41695770  0.03306007  0.68574051    -0.39200
O767        O  0.39588924  0.06636027  0.69518403    -0.39200
O768        O  0.07240284  0.19193546  0.72061097    -0.39900
O769        O  0.07317980  0.15242421  0.74447942    -0.39900
C770        C  0.09821956  0.14346984  0.56673156    -0.12200
C771        C  0.06711680  0.13232475  0.55344249     0.04800
C772        C  0.03616893  0.12112412  0.56764055    -0.07500
C773        C  0.03678426  0.12087914  0.59457363    -0.08300
C774        C  0.06784841  0.13136084  0.60787175    -0.02800
C775        C  0.09893440  0.14349938  0.59357061     0.04000
N776        N  0.13174759  0.15739406  0.60599883     0.66500
H777        H  0.12235635  0.15274140  0.55617901     0.15400
H778        H  0.01256151  0.11116244  0.60508126     0.15100
N779        N  0.50921819  0.12343376  0.55450616     0.74200
O780        O  0.14788749  0.14104421  0.60507099    -0.39200
O781        O  0.14678955  0.18812784  0.61459643    -0.39200
O782        O  0.48524538  0.09253351  0.55027994    -0.39900
O783        O  0.98854028  0.12486153  0.55444985    -0.39900
C784        C  0.06761137  0.62415656  0.63540494     0.80300
N785        N  0.04374587  0.62854918  0.64905327    -0.78000
C786        C  0.04392641  0.62821919  0.67512875     0.82700
N787        N  0.06689389  0.62240038  0.68715821    -0.78000
C788        C  0.08970663  0.61684662  0.67426528     0.82800
N789        N  0.09004063  0.61742823  0.64829105    -0.79700
C790        C  0.04594311  0.85532371  0.62965474     0.80300
N791        N  0.07339784  0.87988663  0.64369892    -0.78000
C792        C  0.06842427  0.88504153  0.66870719     0.82700
N793        N  0.03664442  0.86647962  0.67926465    -0.78000
C794        C  0.00940489  0.84242107  0.66589724     0.82800
N795        N  0.01386689  0.83633886  0.64105613    -0.79700
C796        C  0.44195880  0.95899837  0.79591280     0.03200
C797        C  0.42245227  0.92211291  0.79644969    -0.13000
C798        C  0.43867531  0.90238632  0.79988399     0.00700
C799        C  0.47547026  0.92036556  0.80189951    -0.11500
C800        C  0.49599786  0.95716986  0.80044175     0.03200
C801        C  0.47867669  0.97607734  0.79761638    -0.10900
H802        H  0.39434666  0.90872393  0.79546109     0.08800
H803        H  0.48826383  0.90553732  0.80451980     0.06300
H804        H  0.49378138  0.00427196  0.79724758     0.06100
O805        O  0.32180015  0.51196264  0.77853933    -0.85300
O806        O  0.37483762  0.57518726  0.79780031    -0.82400
C807        C  0.40445018  0.59901784  0.80492932     0.98200
O808        O  0.43011354  0.59419385  0.80444714    -0.82400
O809        O  0.41399786  0.54108347  0.83880234    -0.85000
C810        C  0.39465841  0.51167865  0.84898303     1.02700
O811        O  0.37817807  0.48455472  0.83536279    -0.77800
O812        O  0.32049297  0.98625151  0.81367705    -0.78000
C813        C  0.30738510  0.49453297  0.79846926     1.02600
O814        O  0.36343236  0.00822551  0.74127865    -0.85300
O815        O  0.41819092  0.57925712  0.75562515    -0.82400
C816        C  0.44531276  0.57756043  0.75285740     0.98200
O817        O  0.45210693  0.56025282  0.76834368    -0.82400
O818        O  0.44257695  0.51061051  0.80492198    -0.85000
C819        C  0.42361795  0.97940451  0.79558594     1.02600
O820        O  0.39212769  0.96463686  0.78891162    -0.77800
O821        O  0.33535560  0.96151507  0.76566166    -0.78000
C822        C  0.34498873  0.97575746  0.74377565     1.02600
Cr823      Cr  0.37236372  0.54343991  0.77029242     1.93700
Cr824      Cr  0.43139089  0.54938709  0.80319238     1.93200
Cr825      Cr  0.35801565  0.97827828  0.80014238     1.39100
O826        O  0.38874908  0.52366808  0.79085509    -1.23100
O827        O  0.37064206  0.71655568  0.80452504    -0.85300
O828        O  0.31291808  0.71880647  0.79120951    -0.82400
C829        C  0.29965184  0.72297537  0.81128267     0.98200
O830        O  0.31438658  0.75175289  0.82303731    -0.82400
O831        O  0.37219814  0.80814571  0.84395837    -0.85000
C832        C  0.38917251  0.79694347  0.85603205     1.02700
O833        O  0.40806374  0.78772082  0.84425880    -0.77800
O834        O  0.42569812  0.75601688  0.80575136    -0.78000
C835        C  0.40150868  0.72474336  0.80873921     1.02600
O836        O  0.40651652  0.75841718  0.75967170    -0.85300
O837        O  0.35066611  0.76472088  0.75064955    -0.82400
C838        C  0.33117349  0.77717135  0.75299452     0.98200
O839        O  0.32662268  0.78739325  0.77472830    -0.82400
O840        O  0.38642932  0.84534649  0.79511663    -0.85000
C841        C  0.41761587  0.86326550  0.80269100     1.02600
O842        O  0.43133541  0.84798264  0.81338540    -0.77800
O843        O  0.43736224  0.81255124  0.77229245    -0.78000
C844        C  0.42833677  0.78995982  0.75483282     1.02600
Cr845      Cr  0.36154984  0.74252388  0.77827942     1.93700
Cr846      Cr  0.35207250  0.79707172  0.80836526     1.93200
Cr847      Cr  0.42226122  0.79947866  0.80816646     1.39100
O848        O  0.37819591  0.77968003  0.79840048    -1.23100
O849        O  0.18258786  0.57759363  0.79287458    -0.85300
O850        O  0.18530175  0.51981702  0.80729663    -0.82400
C851        C  0.17787100  0.48892674  0.81058844     0.98200
O852        O  0.14369867  0.96638323  0.80970107    -0.82400
O853        O  0.10449396  0.97770689  0.84599024    -0.85000
C854        C  0.09967092  0.49535890  0.85648379     1.02700
O855        O  0.09143840  0.51495852  0.84473503    -0.77800
O856        O  0.15007985  0.57320598  0.82569083    -0.78000
C857        C  0.17837640  0.58981438  0.81344057     1.02600
O858        O  0.13852560  0.53865478  0.75192260    -0.85300
O859        O  0.14706935  0.98813297  0.76332570    -0.82400
C860        C  0.11750892  0.96320842  0.75733592     0.98200
O861        O  0.09173408  0.95372916  0.77221542    -0.82400
O862        O  0.04881059  0.95686556  0.81041631    -0.85000
C863        C  0.03445166  0.97331897  0.80254675     1.02600
O864        O  0.05738141  0.50476162  0.79580829    -0.77800
O865        O  0.11672516  0.56354010  0.77632499    -0.78000
C866        C  0.12629765  0.55836697  0.75448170     1.02600
Cr867      Cr  0.16065294  0.52878223  0.78011232     1.93700
Cr868      Cr  0.09865969  0.96731057  0.80899481     1.93200
Cr869      Cr  0.10519965  0.53683861  0.80969408     1.39100
O870        O  0.12213748  0.51040257  0.79904656    -1.23100
C871        C  0.28269584  0.84023372  0.62992138     0.80300
N872        N  0.27769408  0.81296391  0.64491421    -0.78000
C873        C  0.27882571  0.81631875  0.67091854     0.82700
N874        N  0.28630644  0.84697172  0.68144088    -0.78000
C875        C  0.29238470  0.87425907  0.66690825     0.82800
N876        N  0.29093853  0.87112909  0.64115637    -0.79700
C877        C  0.23925284  0.95663199  0.29787254     0.80300
N878        N  0.21242058  0.95461218  0.31220306    -0.78000
C879        C  0.21359012  0.95421104  0.33824615     0.82700
N880        N  0.24078795  0.95504543  0.34961070    -0.78000
C881        C  0.26666236  0.95557582  0.33599463     0.82800
N882        N  0.26574713  0.95575806  0.31002434    -0.79700
C883        C  0.45948595  0.67945101  0.29784646     0.80300
N884        N  0.46298266  0.70767185  0.31089511    -0.78000
C885        C  0.46786194  0.71016157  0.33650755     0.82700
N886        N  0.46955037  0.68495401  0.34901732    -0.78000
C887        C  0.46642188  0.65693793  0.33677194     0.82800
N888        N  0.46171931  0.65406481  0.31091745    -0.79700
C889        C  0.12077073  0.79173033  0.46609770     0.03200
C890        C  0.10252356  0.75478497  0.46749255    -0.13000
C891        C  0.12027548  0.73600739  0.46758371     0.00700
C892        C  0.15702402  0.75519425  0.46636912    -0.11500
C893        C  0.17598237  0.79205586  0.46444026     0.03200
C894        C  0.15744227  0.80981984  0.46402548    -0.10900
H895        H  0.07441339  0.74061589  0.46896942     0.08800
H896        H  0.17099550  0.74127443  0.46682160     0.06300
H897        H  0.17176443  0.83801314  0.46320989     0.06100
O898        O  0.50610958  0.86096091  0.46871790    -0.85300
O899        O  0.07449495  0.92055512  0.45340085    -0.82400
C900        C  0.08426132  0.92987300  0.47605128     0.98200
O901        O  0.09298371  0.91245414  0.48970501    -0.82400
O902        O  0.08944699  0.85415235  0.50964861    -0.85000
C903        C  0.05948460  0.83853014  0.52003827     1.02700
O904        O  0.03285345  0.82112550  0.50648168    -0.77800
O905        O  0.48573511  0.80490102  0.47078901    -0.78000
C906        C  0.48105192  0.83055885  0.47184877     1.02600
O907        O  0.01549351  0.82930998  0.42023701    -0.85300
O908        O  0.08275274  0.88004267  0.41483302    -0.82400
C909        C  0.11444525  0.89987556  0.41953109     0.98200
O910        O  0.12521042  0.90537052  0.44256067    -0.82400
O911        O  0.11755784  0.84375785  0.46230242    -0.85000
C912        C  0.10191397  0.81164338  0.46784314     1.02600
O913        O  0.07056600  0.79653926  0.47565889    -0.77800
O914        O  0.02992259  0.79226339  0.43437899    -0.78000
C915        C  0.01703177  0.80215608  0.41734406     1.02600
Cr916      Cr  0.04675732  0.87226110  0.43975620     1.93700
Cr917      Cr  0.10325696  0.87705828  0.47495708     1.93200
Cr918      Cr  0.03278221  0.80814078  0.47029727     1.39100
O919        O  0.06121793  0.85230881  0.46154521    -1.23100
O920        O  0.04696914  0.54762248  0.47007716    -0.85300
O921        O  0.49187900  0.55528998  0.45232816    -0.82400
C922        C  0.47739256  0.55698174  0.47256240     0.98200
O923        O  0.49393466  0.58215863  0.48772122    -0.82400
O924        O  0.05210857  0.64064203  0.51107482    -0.85000
C925        C  0.06997999  0.63108795  0.52359514     1.02700
O926        O  0.08881727  0.62176937  0.51206737    -0.77800
O927        O  0.10238777  0.58405954  0.47682870    -0.78000
C928        C  0.07626400  0.55321893  0.47733465     1.02600
O929        O  0.08875676  0.58726619  0.42802113    -0.85300
O930        O  0.03960520  0.60419752  0.41567979    -0.82400
C931        C  0.01987352  0.61653982  0.41794625     0.98200
O932        O  0.01224195  0.62321718  0.44003769    -0.82400
O933        O  0.06897647  0.67908283  0.46350417    -0.85000
C934        C  0.10069259  0.69664740  0.46967186     1.02600
O935        O  0.11588224  0.68110639  0.47793463    -0.77800
O936        O  0.12353275  0.64069527  0.44094251    -0.78000
C937        C  0.11626807  0.61622143  0.42542971     1.02600
Cr938      Cr  0.04380680  0.57707065  0.44354483     1.93700
Cr939      Cr  0.03462461  0.63043550  0.47479306     1.93200
Cr940      Cr  0.10418126  0.63069041  0.47607854     1.39100
O941        O  0.06102196  0.61320107  0.46481511    -1.23100
O942        O  0.35693586  0.91814316  0.45350100    -0.85300
O943        O  0.36083875  0.86209085  0.46895592    -0.82400
C944        C  0.35462653  0.83168632  0.47238666     0.98200
O945        O  0.32407717  0.80606122  0.46974803    -0.82400
O946        O  0.28796835  0.81899751  0.50665243    -0.85000
C947        C  0.27831192  0.83733331  0.51863535     1.02700
O948        O  0.26798957  0.85502484  0.50659998    -0.77800
O949        O  0.32606268  0.91311389  0.48744641    -0.78000
C950        C  0.35421404  0.92927635  0.47499683     1.02600
O951        O  0.31279518  0.87784293  0.41354789    -0.85300
O952        O  0.32481534  0.82533585  0.42375957    -0.82400
C953        C  0.29482420  0.80132862  0.41778698     0.98200
O954        O  0.26970954  0.79218898  0.43327831    -0.82400
O955        O  0.23018542  0.79636519  0.47324359    -0.85000
C956        C  0.21508689  0.81175359  0.46497479     1.02600
O957        O  0.23296708  0.84347644  0.45826952    -0.77800
O958        O  0.29204010  0.90358906  0.43808732    -0.78000
C959        C  0.30158321  0.89839977  0.41618857     1.02600
Cr960      Cr  0.33590051  0.86934789  0.44158680     1.93700
Cr961      Cr  0.27920595  0.80661584  0.47002331     1.93200
Cr962      Cr  0.28091066  0.87685234  0.47164355     1.39100
O963        O  0.29813544  0.85094405  0.46101094    -1.23100
C964        C  0.22809950  0.67975504  0.29889798     0.80300
N965        N  0.25392015  0.71134751  0.30767107    -0.78000
C966        C  0.25736069  0.71769879  0.33319331     0.82700
N967        N  0.23505208  0.69321071  0.34944112    -0.78000
C968        C  0.20897107  0.66225537  0.34136350     0.82800
N969        N  0.20506336  0.65534221  0.31580258    -0.79700
C970        C  0.38167481  0.51173337  0.95982068     0.80300
N971        N  0.35547006  0.99460178  0.97153109    -0.78000
C972        C  0.35218349  0.99674660  0.99726788     0.82700
N973        N  0.37362602  0.51560354  0.01097422    -0.78000
C974        C  0.40369278  0.53886640  0.99965167     0.82800
N975        N  0.40757840  0.53742226  0.97405379    -0.79700
C976        C  0.38017153  0.78049819  0.96639658     0.80300
N977        N  0.35411429  0.78145563  0.97966852    -0.78000
C978        C  0.34986232  0.77419253  0.00508008     0.82700
N979        N  0.37042744  0.76485191  0.01678631    -0.78000
C980        C  0.39528184  0.76242271  0.00397021     0.82800
N981        N  0.40045937  0.77029390  0.97863229    -0.79700
C982        C  0.27349773  0.61254881  0.13129060     0.03200
C983        C  0.31022938  0.63023149  0.13179169    -0.13000
C984        C  0.32843559  0.61196140  0.13199239     0.00700
C985        C  0.30916811  0.57523413  0.13106005    -0.11500
C986        C  0.27237262  0.55638669  0.13058571     0.03200
C987        C  0.25486289  0.57546675  0.13067718    -0.10900
H988        H  0.32471940  0.65842053  0.13278575     0.08800
H989        H  0.32297969  0.56114913  0.13143272     0.06300
H990        H  0.22669798  0.56144902  0.13088594     0.06100
O991        O  0.01626989  0.72744460  0.13330780    -0.85300
O992        O  0.00662570  0.66487452  0.11563004    -0.82400
C993        C  0.00538707  0.65007173  0.13635432     0.98200
O994        O  0.97982785  0.64065889  0.15136123    -0.82400
O995        O  0.42381048  0.63991142  0.17542868    -0.85000
C996        C  0.43464132  0.66809987  0.18783407     1.02700
O997        O  0.44279884  0.69608088  0.17632498    -0.77800
O998        O  0.98057572  0.74671890  0.14008025    -0.78000
C999        C  0.01095898  0.75110997  0.14112730     1.02600
O1000       O  0.47443545  0.72955567  0.09258502    -0.85300
O1001       O  0.45831125  0.66328892  0.08008415    -0.82400
C1002       C  0.44623683  0.63101459  0.08211175     0.98200
O1003       O  0.44027205  0.61652227  0.10400316    -0.82400
O1004       O  0.38467610  0.61704942  0.12793528    -0.85000
C1005       C  0.36740388  0.63122132  0.13449239     1.02600
O1006       O  0.38291236  0.66169256  0.14377620    -0.77800
O1007       O  0.42081155  0.70707161  0.10529631    -0.78000
C1008       C  0.44399410  0.72285940  0.08845853     1.02600
Cr1009     Cr  0.98648439  0.69443652  0.10706154     1.93700
Cr1010     Cr  0.43328640  0.63203649  0.13893047     1.93200
Cr1011     Cr  0.43248106  0.70101591  0.14062257     1.39100
O1012       O  0.45015633  0.67579031  0.12917175    -1.23100
O1013       O  0.21137239  0.87082717  0.13588932    -0.85300
O1014       O  0.15313652  0.87248799  0.12227203    -0.82400
C1015       C  0.14052236  0.87638942  0.14278195     0.98200
O1016       O  0.15607732  0.90465472  0.15496801    -0.82400
O1017       O  0.21291977  0.96278656  0.17459415    -0.85000
C1018       C  0.23262659  0.95470837  0.18631054     1.02700
O1019       O  0.25182332  0.94626569  0.17409660    -0.77800
O1020       O  0.26649553  0.91052917  0.13738906    -0.78000
C1021       C  0.24211167  0.87941264  0.14138733     1.02600
O1022       O  0.24611753  0.90965928  0.09031085    -0.85300
O1023       O  0.19058069  0.91779069  0.08131322    -0.82400
C1024       C  0.17042075  0.92951878  0.08415047     0.98200
O1025       O  0.16522725  0.93871635  0.10611321    -0.82400
O1026       O  0.22326461  0.99845957  0.12602521    -0.85000
C1027       C  0.25488397  0.01746778  0.13212279     1.02600
O1028       O  0.27146938  0.00330948  0.13999547    -0.77800
O1029       O  0.27687018  0.96457176  0.10045591    -0.78000
C1030       C  0.26828832  0.94048916  0.08422023     1.02600
Cr1031     Cr  0.20174613  0.89578721  0.10917743     1.93700
Cr1032     Cr  0.19169450  0.94991488  0.13943393     1.93200
Cr1033     Cr  0.26328448  0.95457471  0.13719898     1.39100
O1034       O  0.21869900  0.93363860  0.12873675    -1.23100
O1035       O  0.15809012  0.68334382  0.14173885    -0.85300
O1036       O  0.22045538  0.74055247  0.12816297    -0.82400
C1037       C  0.24015957  0.75324766  0.14719407     0.98200
O1038       O  0.25294709  0.73698078  0.15780879    -0.82400
O1039       O  0.24923132  0.67697028  0.17585886    -0.85000
C1040       C  0.22159179  0.66056568  0.18916098     1.02700
O1041       O  0.19218387  0.64342793  0.17852447    -0.77800
O1042       O  0.14052951  0.62804852  0.14216883    -0.78000
C1043       C  0.13414705  0.65241994  0.14527283     1.02600
O1044       O  0.16098789  0.64855579  0.09514193    -0.85300
O1045       O  0.22518330  0.70395641  0.08534002    -0.82400
C1046       C  0.25772049  0.72259393  0.08702348     0.98200
O1047       O  0.27301228  0.72557564  0.10803997    -0.82400
O1048       O  0.26863218  0.66394272  0.12586312    -0.85000
C1049       C  0.25478334  0.63271626  0.13357020     1.02600
O1050       O  0.22528003  0.61875215  0.14441119    -0.77800
O1051       O  0.18183915  0.61544232  0.10601028    -0.78000
C1052       C  0.16789761  0.62511387  0.08965515     1.02600
Cr1053     Cr  0.19273870  0.69255839  0.11428470     1.93700
Cr1054     Cr  0.25732418  0.69874343  0.14110070     1.93200
Cr1055     Cr  0.18686361  0.62985786  0.14212508     1.39100
O1056       O  0.21269704  0.67409944  0.13256371    -1.23100
C1057       C  0.11495539  0.50350484  0.96712410     0.80300
N1058       N  0.11465084  0.97437054  0.98008918    -0.78000
C1059       C  0.11653734  0.97367567  0.00604905     0.82700
N1060       N  0.13071925  0.51046733  0.01751772    -0.78000
C1061       C  0.13286136  0.53751974  0.00472018     0.82800
N1062       N  0.12492813  0.53422798  0.97948902    -0.79700
C1063       C  0.18558141  0.60210490  0.05365320    -0.12200
C1064       C  0.16112708  0.60964907  0.06390457     0.04800
C1065       C  0.13071586  0.60058131  0.04998304    -0.07500
C1066       C  0.12350374  0.58048082  0.02762158    -0.08300
C1067       C  0.14666018  0.57021767  0.01886395    -0.02800
C1068       C  0.17880126  0.58287651  0.03121195     0.04000
N1069       N  0.20290899  0.57267920  0.02284900     0.66500
H1070       H  0.20956346  0.60990381  0.06374346     0.15400
H1071       H  0.09841909  0.57016715  0.01855315     0.15100
N1072       N  0.10528826  0.60814357  0.05968822     0.74200
O1073       O  0.22165768  0.58674093  0.00332050    -0.39200
O1074       O  0.20844349  0.55289694  0.03663181    -0.39200
O1075       O  0.10880626  0.63758311  0.05547242    -0.39900
O1076       O  0.07645300  0.58363800  0.06775918    -0.39900
C1077       C  0.22187184  0.82351948  0.16412977    -0.12200
C1078       C  0.24864141  0.85162889  0.15062130     0.04800
C1079       C  0.27808407  0.84955734  0.14334706    -0.07500
C1080       C  0.27748328  0.81781307  0.14612848    -0.08300
C1081       C  0.24788244  0.78809420  0.15589455    -0.02800
C1082       C  0.22090964  0.79181905  0.16643461     0.04000
N1083       N  0.19064311  0.76253559  0.17712686     0.66500
H1084       H  0.20043548  0.82553537  0.17155641     0.15400
H1085       H  0.29861979  0.81540866  0.13821041     0.15100
N1086       N  0.30709987  0.87796286  0.13076685     0.74200
O1087       O  0.19050872  0.75459323  0.20028320    -0.39200
O1088       O  0.16262008  0.74809172  0.16472256    -0.39200
O1089       O  0.33652258  0.89290512  0.14128626    -0.39900
O1090       O  0.30466973  0.88428866  0.10765223    -0.39900
C1091       C  0.17034533  0.94290656  0.03781251    -0.12200
C1092       C  0.15253137  0.93237347  0.06141359     0.04800
C1093       C  0.11856143  0.92667915  0.06322498    -0.07500
C1094       C  0.10468028  0.93532393  0.04265300    -0.08300
C1095       C  0.12424050  0.95009801  0.02022967    -0.02800
C1096       C  0.15668322  0.95231208  0.01732642     0.04000
N1097       N  0.17799893  0.96833722  0.99522012     0.66500
H1098       H  0.19631442  0.94690717  0.03602089     0.15400
H1099       H  0.07966915  0.93346773  0.04508846     0.15100
N1100       N  0.09825980  0.91311253  0.08609384     0.74200
O1101       O  0.19238709  0.00083934  0.99212503    -0.39200
O1102       O  0.18656651  0.95100297  0.98093465    -0.39200
O1103       O  0.09067720  0.93201630  0.09943891    -0.39900
O1104       O  0.08386687  0.88100203  0.09090394    -0.39900
C1105       C  0.07567088  0.62731899  0.12714653    -0.12200
C1106       C  0.09776775  0.64470487  0.14771226     0.04800
C1107       C  0.08668416  0.65952220  0.16694198    -0.07500
C1108       C  0.05493886  0.65890824  0.16388213    -0.08300
C1109       C  0.03435278  0.64397580  0.14205172    -0.02800
C1110       C  0.04462047  0.62729774  0.12392584     0.04000
N1111       N  0.02446456  0.61132336  0.10151961     0.66500
H1112       H  0.08392153  0.61596435  0.11232921     0.15400
H1113       H  0.04697907  0.67138491  0.17801678     0.15100
N1114       N  0.10710184  0.67492655  0.18952643     0.74200
O1115       O  0.02888999  0.62972312  0.08201067    -0.39200
O1116       O  0.00900187  0.57863269  0.09920653    -0.39200
O1117       O  0.10522882  0.69861071  0.20146165    -0.39900
O1118       O  0.12390562  0.66219122  0.19928403    -0.39900
C1119       C  0.07160003  0.78424227  0.15607086    -0.12200
C1120       C  0.04158177  0.78464368  0.14919720     0.04800
C1121       C  0.04360870  0.81719768  0.14679036    -0.07500
C1122       C  0.07624812  0.84817923  0.14795873    -0.08300
C1123       C  0.10673862  0.84700711  0.15143444    -0.02800
C1124       C  0.10385581  0.81486517  0.15694789     0.04000
N1125       N  0.13388384  0.81250869  0.16170982     0.66500
H1126       H  0.07057091  0.75970554  0.15902554     0.15400
H1127       H  0.07805611  0.87280863  0.14381588     0.15100
N1128       N  0.01356093  0.81924082  0.14092551     0.74200
O1129       O  0.14152488  0.81064065  0.18460280    -0.39200
O1130       O  0.14588393  0.80232161  0.14391369    -0.39200
O1131       O  0.00072767  0.82999559  0.15768371    -0.39900
O1132       O  0.00306529  0.81530371  0.11814268    -0.39900
C1133       C  0.26683122  0.72541223  0.03979217    -0.12200
C1134       C  0.27806722  0.74114849  0.06395261     0.04800
C1135       C  0.30869632  0.77416558  0.06546032    -0.07500
C1136       C  0.32921952  0.78873962  0.04356977    -0.08300
C1137       C  0.32056912  0.77043519  0.02035078    -0.02800
C1138       C  0.28803526  0.73964074  0.01804947     0.04000
N1139       N  0.27847061  0.72009395  0.99472994     0.66500
H1140       H  0.24290546  0.70049952  0.03812898     0.15400
H1141       H  0.35431795  0.81239534  0.04553247     0.15100
N1142       N  0.32015379  0.79277870  0.08911385     0.74200
O1143       O  0.29009062  0.70021542  0.98963838    -0.39200
O1144       O  0.25484348  0.71902035  0.98105011    -0.39200
O1145       O  0.33715415  0.78548450  0.10444760    -0.39900
O1146       O  0.32157095  0.82163946  0.09131744    -0.39900
C1147       C  0.40162941  0.70908486  0.05429680    -0.12200
C1148       C  0.43501630  0.73164966  0.06362834     0.04800
C1149       C  0.45837821  0.76120373  0.04896302    -0.07500
C1150       C  0.44654325  0.76915348  0.02661438    -0.08300
C1151       C  0.41242469  0.74728843  0.01821462    -0.02800
C1152       C  0.39063490  0.71592208  0.03139645     0.04000
N1153       N  0.35586618  0.69248345  0.02292837     0.66500
H1154       H  0.38375730  0.68584674  0.06492989     0.15400
H1155       H  0.46308596  0.79372075  0.01698055     0.15100
N1156       N  0.49290234  0.78497514  0.05759660     0.74200
O1157       O  0.35072957  0.67928910  0.00081470    -0.39200
O1158       O  0.33043132  0.68333637  0.03802333    -0.39200
O1159       O  0.01654446  0.77198886  0.04909607    -0.39900
O1160       O  0.00618377  0.81245131  0.06173113    -0.39900
C1161       C  0.31528935  0.94369907  0.02201331    -0.12200
C1162       C  0.32004817  0.97462995  0.01161334     0.04800
C1163       C  0.30274884  0.99042972  0.02281890    -0.07500
C1164       C  0.28481719  0.97777558  0.04595496    -0.08300
C1165       C  0.28285849  0.94876382  0.05790211    -0.02800
C1166       C  0.29616627  0.92999785  0.04481185     0.04000
N1167       N  0.29308501  0.89883261  0.05511769     0.66500
H1168       H  0.32879507  0.93166984  0.01346345     0.15400
H1169       H  0.27356950  0.99161642  0.05519505     0.15100
N1170       N  0.29993168  0.51446427  0.00986190     0.74200
O1171       O  0.26335577  0.87297878  0.05987625    -0.39200
O1172       O  0.31879611  0.89439304  0.05398373    -0.39200
O1173       O  0.27698150  0.51103795  0.99429887    -0.39900
O1174       O  0.32210460  0.54444017  0.01780851    -0.39900
C1175       C  0.42741438  0.59874727  0.01347002    -0.12200
C1176       C  0.42835519  0.56801177  0.01539048     0.04800
C1177       C  0.43939128  0.56030881  0.03828549    -0.07500
C1178       C  0.44514659  0.58123987  0.05986252    -0.08300
C1179       C  0.44119656  0.61040794  0.05867416    -0.02800
C1180       C  0.43339478  0.61982732  0.03496350     0.04000
N1181       N  0.42615166  0.64742343  0.03330543     0.66500
H1182       H  0.41751636  0.60396823  0.99623391     0.15400
H1183       H  0.45204542  0.57428971  0.07775609     0.15100
N1184       N  0.44192778  0.52961595  0.04021437     0.74200
O1185       O  0.94381654  0.67409730  0.02294322    -0.39200
O1186       O  0.39567597  0.64100513  0.03786205    -0.39200
O1187       O  0.45507481  0.52120669  0.02206958    -0.39900
O1188       O  0.43126930  0.51093418  0.06006661    -0.39900
C1189       C  0.25653041  0.68426931  0.25700044    -0.12200
C1190       C  0.22567848  0.67236935  0.27112825     0.04800
C1191       C  0.19357426  0.65406212  0.25836063    -0.07500
C1192       C  0.19288095  0.64913283  0.23187691    -0.08300
C1193       C  0.22372769  0.66217861  0.21751489    -0.02800
C1194       C  0.25588443  0.67898886  0.23053755     0.04000
N1195       N  0.28812482  0.69059346  0.21734674     0.66500
H1196       H  0.28141292  0.69757264  0.26660928     0.15400
H1197       H  0.16789563  0.63629915  0.22242156     0.15100
N1198       N  0.16147005  0.64295509  0.27145277     0.74200
O1199       O  0.30865791  0.72271777  0.21368378    -0.39200
O1200       O  0.29828829  0.66937657  0.21285871    -0.39200
O1201       O  0.15153064  0.66456654  0.27476180    -0.39900
O1202       O  0.13947296  0.61080147  0.27288276    -0.39900
C1203       C  0.26679139  0.78539808  0.37528363    -0.12200
C1204       C  0.29016598  0.78476536  0.39259551     0.04800
C1205       C  0.31131621  0.77140507  0.38463277    -0.07500
C1206       C  0.30565308  0.75496182  0.36077019    -0.08300
C1207       C  0.27937552  0.75200429  0.34463303    -0.02800
C1208       C  0.26222002  0.77023616  0.35096983     0.04000
N1209       N  0.23651056  0.76909521  0.33416641     0.66500
H1210       H  0.25196019  0.79753922  0.38071804     0.15400
H1211       H  0.31853117  0.74049942  0.35638849     0.15100
N1212       N  0.33611235  0.77120975  0.40160872     0.74200
O1213       O  0.20637442  0.75968856  0.34246402    -0.39200
O1214       O  0.24343236  0.77596980  0.31069366    -0.39200
O1215       O  0.32627007  0.74767422  0.41833058    -0.39900
O1216       O  0.36817462  0.79198699  0.39795099    -0.39900
C1217       C  0.38526122  0.99298551  0.48535781    -0.12200
C1218       C  0.38514470  0.96141521  0.48444839     0.04800
C1219       C  0.41720665  0.96243373  0.48534220    -0.07500
C1220       C  0.44841705  0.99430410  0.48471599    -0.08300
C1221       C  0.44056671  0.52934130  0.47701203    -0.02800
C1222       C  0.41638256  0.51955681  0.45693411     0.04000
N1223       N  0.42466190  0.53948530  0.43386883     0.66500
H1224       H  0.36093983  0.99267785  0.48397158     0.15400
H1225       H  0.47271395  0.99441546  0.48373238     0.15100
N1226       N  0.41852612  0.93111230  0.48461260     0.74200
O1227       O  0.44130993  0.53460865  0.41629581    -0.39200
O1228       O  0.40732903  0.55367217  0.42836223    -0.39200
O1229       O  0.43278498  0.92522416  0.46582936    -0.39900
O1230       O  0.41084645  0.91251279  0.50443426    -0.39900
C1231       C  0.12595523  0.61067305  0.37955424    -0.12200
C1232       C  0.13979548  0.62076096  0.40420669     0.04800
C1233       C  0.17589005  0.63722189  0.40774021    -0.07500
C1234       C  0.19743860  0.64490214  0.38637025    -0.08300
C1235       C  0.18415756  0.63980750  0.36135375    -0.02800
C1236       C  0.14780923  0.62124391  0.35798694     0.04000
N1237       N  0.13269126  0.61792623  0.33344883     0.66500
H1238       H  0.09809057  0.59789678  0.37688456     0.15400
H1239       H  0.22529594  0.65826898  0.38936523     0.15100
N1240       N  0.19122842  0.64819365  0.43258176     0.74200
O1241       O  0.11159541  0.58792579  0.32493616    -0.39200
O1242       O  0.13219536  0.64381540  0.32443932    -0.39200
O1243       O  0.17925768  0.62773388  0.45141115    -0.39900
O1244       O  0.21761113  0.67812639  0.43559050    -0.39900
C1245       C  0.40650792  0.83965119  0.45150442    -0.12200
C1246       C  0.38433662  0.82674590  0.47272446     0.04800
C1247       C  0.39200449  0.81133248  0.49306885    -0.07500
C1248       C  0.42300560  0.81048572  0.49223872    -0.08300
C1249       C  0.44616996  0.82555448  0.47152466    -0.02800
C1250       C  0.43717723  0.83919539  0.45071370     0.04000
N1251       N  0.45920170  0.85303015  0.42863921     0.66500
H1252       H  0.40027431  0.85090803  0.43554722     0.15400
H1253       H  0.42977588  0.79983568  0.50820423     0.15100
N1254       N  0.37010498  0.79904998  0.51525891     0.74200
O1255       O  0.45315023  0.83390111  0.40920020    -0.39200
O1256       O  0.47894134  0.88555951  0.42647878    -0.39200
O1257       O  0.35207608  0.76680196  0.51966838    -0.39900
O1258       O  0.37156218  0.82047938  0.53179964    -0.39900
C1259       C  0.11509385  0.99398809  0.48032236    -0.12200
C1260       C  0.08543995  0.96169129  0.48553227     0.04800
C1261       C  0.05444128  0.96055338  0.49287864    -0.07500
C1262       C  0.05296469  0.99121913  0.49300609    -0.08300
C1263       C  0.07956667  0.52252890  0.48402258    -0.02800
C1264       C  0.11377297  0.02477187  0.48065353     0.04000
N1265       N  0.14171640  0.55101346  0.47134418     0.66500
H1266       H  0.13880719  0.99503978  0.47410412     0.15400
H1267       H  0.02841379  0.98951776  0.49746523     0.15100
N1268       N  0.02363644  0.92808113  0.49866246     0.74200
O1269       O  0.15965037  0.57328488  0.48815981    -0.39200
O1270       O  0.15522145  0.55194002  0.44980661    -0.39200
O1271       O  0.02384850  0.90930759  0.51653466    -0.39900
O1272       O  0.99530364  0.92002114  0.48796726    -0.39900
C1273       C  0.50144036  0.63080984  0.34908912    -0.12200
C1274       C  0.47137876  0.63277454  0.35274732     0.04800
C1275       C  0.45495204  0.62441446  0.37700267    -0.07500
C1276       C  0.47121576  0.61942747  0.39780237    -0.08300
C1277       C  0.50275927  0.62020770  0.39483945    -0.02800
C1278       C  0.01605877  0.62335554  0.36961166     0.04000
N1279       N  0.04792089  0.62398924  0.36470539     0.66500
H1280       H  0.01155819  0.63474157  0.33027219     0.15400
H1281       H  0.45918256  0.61539650  0.41653409     0.15100
N1282       N  0.42332014  0.62449984  0.38124230     0.74200
O1283       O  0.04863043  0.60328135  0.34848412    -0.39200
O1284       O  0.07616278  0.64892407  0.37304164    -0.39200
O1285       O  0.39530002  0.60052245  0.37187032    -0.39900
O1286       O  0.42260523  0.64596023  0.39672178    -0.39900
C1287       C  0.45166215  0.73337708  0.37269386    -0.12200
C1288       C  0.47407056  0.74029901  0.35169038     0.04800
C1289       C  0.50783450  0.76972812  0.35221239    -0.05100
C1290       C  0.01981860  0.79103645  0.37120821    -0.08300
C1291       C  0.49883581  0.77940326  0.39669159    -0.02800
C1292       C  0.46386372  0.75274013  0.39521301     0.04000
N1293       N  0.44135516  0.74334229  0.41704908     0.66500
H1294       H  0.42579860  0.71047496  0.37259527     0.15400
H1295       H  0.04566038  0.81390950  0.37034203     0.15100
N1296       N  0.02741601  0.77770561  0.32707141     0.74200
O1297       O  0.42026716  0.75412076  0.41906313    -0.39200
O1298       O  0.43926367  0.72065319  0.43242860    -0.39200
O1299       O  0.53551118  0.80133258  0.31548414    -0.39900
O1300       O  0.04466200  0.76280436  0.32340082    -0.39900
C1301       C  0.43958748  0.64397730  0.25740772    -0.12200
C1302       C  0.45283715  0.67643267  0.26970244     0.04800
C1303       C  0.45854032  0.70535498  0.25484176    -0.07500
C1304       C  0.45146968  0.70146731  0.22866904    -0.08300
C1305       C  0.43873625  0.66926268  0.21622299    -0.02800
C1306       C  0.43240098  0.64012353  0.23103955     0.04000
N1307       N  0.90868224  0.60525450  0.22050342     0.66500
H1308       H  0.92692475  0.61935988  0.26885184     0.15400
H1309       H  0.45674341  0.72439413  0.21795878     0.15100
N1310       N  0.47261116  0.73937630  0.26566500     0.74200
O1311       O  0.92229968  0.58678140  0.21702503    -0.39200
O1312       O  0.87624919  0.59178901  0.21811745    -0.39200
O1313       O  0.50506335  0.76012653  0.26518097    -0.39900
O1314       O  0.45262598  0.75075283  0.27108963    -0.39900
C1315       C  0.30305201  0.96715273  0.37338514    -0.12200
C1316       C  0.28999775  0.94824765  0.35056162     0.04800
C1317       C  0.28704111  0.91541258  0.34809436    -0.07500
C1318       C  0.29266671  0.90020644  0.36947479    -0.08300
C1319       C  0.30093335  0.91724673  0.39332526    -0.02800
C1320       C  0.30840015  0.95190113  0.39478797     0.04000
N1321       N  0.32059501  0.97156625  0.41797717     0.66500
H1322       H  0.30567132  0.99258031  0.37538680     0.15400
H1323       H  0.28790016  0.87389445  0.36788548     0.15100
N1324       N  0.27350772  0.89517103  0.32529004     0.74200
O1325       O  0.35117606  0.98206884  0.42537770    -0.39200
O1326       O  0.30264928  0.98227954  0.42916114    -0.39200
O1327       O  0.29358465  0.89116044  0.31039339    -0.39900
O1328       O  0.24104194  0.87692174  0.32219914    -0.39900
C1329       C  0.19183959  0.96376192  0.37895812    -0.12200
C1330       C  0.18403559  0.94639200  0.35523347     0.04800
C1331       C  0.15186222  0.91539898  0.35223363    -0.07500
C1332       C  0.12918881  0.90131456  0.37324745    -0.08300
C1333       C  0.13833157  0.91720825  0.39757440    -0.02800
C1334       C  0.16956713  0.94937569  0.40008221     0.04000
N1335       N  0.17947329  0.96741456  0.42401359     0.66500
H1336       H  0.21676702  0.98739885  0.38163240     0.15400
H1337       H  0.10516579  0.87668096  0.37081569     0.15100
N1338       N  0.14376169  0.89573426  0.32902154     0.74200
O1339       O  0.20127164  0.96529940  0.43788679    -0.39200
O1340       O  0.17091747  0.98968723  0.42922729    -0.39200
O1341       O  0.15297042  0.87349134  0.32608449    -0.39900
O1342       O  0.12338443  0.89705966  0.31314985    -0.39900
C1343       C  0.20789678  0.95131415  0.25693823    -0.12200
C1344       C  0.23849510  0.95764923  0.26922541     0.04800
C1345       C  0.26739011  0.96400502  0.25372301    -0.07500
C1346       C  0.26465957  0.96253740  0.22696510    -0.08300
C1347       C  0.23400085  0.95587326  0.21479917    -0.02800
C1348       C  0.20544504  0.95042518  0.23012855     0.04000
N1349       N  0.17312382  0.94220848  0.21885749     0.66500
H1350       H  0.18525777  0.94620333  0.26814374     0.15400
H1351       H  0.28713443  0.96748304  0.21559155     0.15100
N1352       N  0.30019026  0.97317327  0.26463807     0.74200
O1353       O  0.15221106  0.91142662  0.21167822    -0.39200
O1354       O  0.16322132  0.96408484  0.21977228    -0.39200
O1355       O  0.31136124  0.95235764  0.26293823    -0.39900
O1356       O  0.32025097  0.00397487  0.27220982    -0.39900
C1357       C  0.28421944  0.81355268  0.56041884    -0.12200
C1358       C  0.27870084  0.83769991  0.54715286     0.04800
C1359       C  0.27435407  0.86218623  0.56150611    -0.07500
C1360       C  0.27476228  0.86155143  0.58822685    -0.08300
C1361       C  0.28058927  0.83772525  0.60151476    -0.02800
C1362       C  0.28548116  0.81354863  0.58727181     0.04000
N1363       N  0.29350185  0.79003065  0.59958612     0.66500
H1364       H  0.28815193  0.79480843  0.54992149     0.15400
H1365       H  0.27118623  0.88059710  0.59862145     0.15100
N1366       N  0.27121941  0.88909448  0.54939547     0.74200
O1367       O  0.27002799  0.75863286  0.60276675    -0.39200
O1368       O  0.32479623  0.79929301  0.60384075    -0.39200
O1369       O  0.24324767  0.88941333  0.55154228    -0.39900
O1370       O  0.29806039  0.91556882  0.54067221    -0.39900
C1371       C  0.09887431  0.52168551  0.89865782    -0.12200
C1372       C  0.09947755  0.49478314  0.88501401     0.04800
C1373       C  0.10264407  0.46941700  0.89891850    -0.07500
C1374       C  0.10702161  0.47251853  0.92550855    -0.08300
C1375       C  0.10769270  0.50012687  0.93909281    -0.02800
C1376       C  0.10265183  0.52444709  0.92533013     0.04000
N1377       N  0.13382261  0.06368124  0.93786003     0.66500
H1378       H  0.09614611  0.54127277  0.88854684     0.15400
H1379       H  0.11025004  0.45316008  0.93548714     0.15100
N1380       N  0.10122569  0.44010093  0.88644835     0.74200
O1381       O  0.12650980  0.58292120  0.93626317    -0.39200
O1382       O  0.12084278  0.08300210  0.93741733    -0.39200
O1383       O  0.12743669  0.43648449  0.88659247    -0.39900
O1384       O  0.07251765  0.41557037  0.87842080    -0.39900
C1385       C  0.26945263  0.66315640  0.82771646    -0.12200
C1386       C  0.26726590  0.69218795  0.82076951     0.04800
C1387       C  0.23413622  0.68788280  0.81677822    -0.07500
C1388       C  0.20423456  0.65425347  0.81775262    -0.08300
C1389       C  0.20706277  0.62462908  0.82173467    -0.02800
C1390       C  0.24002388  0.62962211  0.82788078     0.04000
N1391       N  0.24476334  0.60082734  0.83257735     0.66500
H1392       H  0.29479797  0.66609225  0.83061681     0.15400
H1393       H  0.17922239  0.65102238  0.81298940     0.15100
N1394       N  0.23085687  0.71665353  0.80891775     0.74200
O1395       O  0.24499086  0.58292011  0.81388556    -0.39200
O1396       O  0.25858883  0.59998934  0.85330003    -0.39200
O1397       O  0.23044134  0.72264928  0.78538725    -0.39900
O1398       O  0.22343947  0.73285755  0.82523984    -0.39900
C1399       C  0.41626108  0.79958381  0.89809938    -0.12200
C1400       C  0.38735339  0.79499127  0.88437136     0.04800
C1401       C  0.35680588  0.78726031  0.89795277    -0.07500
C1402       C  0.35543179  0.78357493  0.92459893    -0.08300
C1403       C  0.38406701  0.78743753  0.93836992    -0.02800
C1404       C  0.41505282  0.79632069  0.92482347     0.04000
N1405       N  0.44586288  0.80316766  0.93788857     0.66500
H1406       H  0.44014780  0.80610976  0.88804106     0.15400
H1407       H  0.33123897  0.77646386  0.93440973     0.15100
N1408       N  0.32608995  0.78062335  0.88486854     0.74200
O1409       O  0.45595275  0.78145472  0.93661092    -0.39200
O1410       O  0.46575158  0.83304902  0.94712440    -0.39200
O1411       O  0.30354677  0.74973550  0.87903962    -0.39900
O1412       O  0.31847756  0.80418186  0.88369870    -0.39900
C1413       C  0.30831767  0.78528907  0.68409288    -0.12200
C1414       C  0.28120570  0.79183172  0.68830746     0.04800
C1415       C  0.26690498  0.78737325  0.71317018    -0.07500
C1416       C  0.28300714  0.78165542  0.73380258    -0.08300
C1417       C  0.31263098  0.77892089  0.73011385    -0.02800
C1418       C  0.32399906  0.77854446  0.70466440     0.04000
N1419       N  0.35308489  0.77424906  0.69939847     0.66500
H1420       H  0.31970310  0.78887075  0.66512346     0.15400
H1421       H  0.27285779  0.78049847  0.75292535     0.15100
N1422       N  0.23801034  0.79206078  0.71802071     0.74200
O1423       O  0.34942551  0.74435440  0.70102179    -0.39200
O1424       O  0.37942513  0.79808438  0.68793821    -0.39200
O1425       O  0.20760377  0.76748703  0.71336652    -0.39900
O1426       O  0.24226964  0.81810439  0.73069737    -0.39900
C1427       C  0.38790699  0.63744504  0.82816477    -0.12200
C1428       C  0.40976143  0.63390728  0.81050475     0.04800
C1429       C  0.43324278  0.66294512  0.79563640    -0.07500
C1430       C  0.43262384  0.69396996  0.79722137    -0.08300
C1431       C  0.40911602  0.69672957  0.81359903    -0.02800
C1432       C  0.38806414  0.66897252  0.83037447     0.04000
N1433       N  0.36689479  0.67263065  0.84957646     0.66500
H1434       H  0.37037981  0.61542455  0.83999413     0.15400
H1435       H  0.44862552  0.71498349  0.78409152     0.15100
N1436       N  0.45484977  0.66000812  0.77663744     0.74200
O1437       O  0.33840722  0.64657849  0.85657125    -0.39200
O1438       O  0.37846503  0.70099312  0.86163702    -0.39200
O1439       O  0.44641602  0.65693696  0.75336427    -0.39900
O1440       O  0.48492923  0.66663323  0.78251477    -0.39900
C1441       C  0.20989761  0.97070359  0.79080577    -0.12200
C1442       C  0.20676928  0.48202646  0.81107518     0.04800
C1443       C  0.23013026  0.49182502  0.83164849    -0.07500
C1444       C  0.26203614  0.49297092  0.82819107    -0.08300
C1445       C  0.27095338  0.48485509  0.80427681    -0.02800
C1446       C  0.24138161  0.97178692  0.78668914     0.04000
N1447       N  0.24685036  0.95926103  0.76287656     0.66500
H1448       H  0.19095625  0.96142125  0.77554995     0.15400
H1449       H  0.28070052  0.50234251  0.84362561     0.15100
N1450       N  0.22170850  0.50045293  0.85602779     0.74200
O1451       O  0.24987342  0.93265763  0.76256068    -0.39200
O1452       O  0.24381052  0.97167462  0.74207388    -0.39200
O1453       O  0.21293412  0.47922411  0.87434171    -0.39900
O1454       O  0.21935740  0.52728189  0.85860524    -0.39900
C1455       C  0.36268181  0.98876659  0.91729299    -0.12200
C1456       C  0.38630271  0.51052832  0.93152216     0.04800
C1457       C  0.41659910  0.53617148  0.91850790    -0.07500
C1458       C  0.41879622  0.53541241  0.89184337    -0.08300
C1459       C  0.39176633  0.50934127  0.87731523    -0.02800
C1460       C  0.36393439  0.98701572  0.89055929     0.04000
N1461       N  0.33549294  0.95850399  0.87769741     0.66500
H1462       H  0.34037583  0.96808529  0.92724491     0.15400
H1463       H  0.44198964  0.55570708  0.88241920     0.15100
N1464       N  0.44545196  0.56360926  0.93182545     0.74200
O1465       O  0.33470148  0.92996244  0.87528947    -0.39200
O1466       O  0.30914648  0.96032567  0.87186194    -0.39200
O1467       O  0.47119947  0.56050750  0.93719701    -0.39900
O1468       O  0.44772176  0.59283363  0.93435144    -0.39900
C1469       C  0.30088124  0.94392880  0.71066568    -0.12200
C1470       C  0.33365428  0.95429003  0.72078893     0.04800
C1471       C  0.35517908  0.94384369  0.70889230    -0.07500
C1472       C  0.34262145  0.92122560  0.68802109    -0.08300
C1473       C  0.30847823  0.90800366  0.67954047    -0.02800
C1474       C  0.28788562  0.92032704  0.69030288     0.04000
N1475       N  0.25284878  0.90677717  0.68224235     0.66500
H1476       H  0.28481300  0.95293556  0.71929485     0.15400
H1477       H  0.35814982  0.91090634  0.68026840     0.15100
N1478       N  0.38821655  0.95300658  0.71938992     0.74200
O1479       O  0.22819119  0.88216678  0.69451493    -0.39200
O1480       O  0.24629512  0.92240184  0.66514309    -0.39200
O1481       O  0.38930809  0.93776459  0.73930568    -0.39900
O1482       O  0.41543267  0.97007508  0.70603552    -0.39900
C1483       C  0.96619204  0.84301041  0.69399446    -0.12200
C1484       C  0.47908589  0.82295439  0.68202209     0.04800
C1485       C  0.46668234  0.78864114  0.69029933    -0.07500
C1486       C  0.44844234  0.77738532  0.71359656    -0.08300
C1487       C  0.44298407  0.80028119  0.72882084    -0.02800
C1488       C  0.45201002  0.83321111  0.71898809     0.04000
N1489       N  0.44533581  0.85675980  0.73314570     0.66500
H1490       H  0.97420196  0.86910169  0.68750767     0.15400
H1491       H  0.44078570  0.75163474  0.72062195     0.15100
N1492       N  0.47607613  0.76660209  0.67692913     0.74200
O1493       O  0.96508681  0.88175260  0.74220205    -0.39200
O1494       O  0.41580921  0.85391035  0.73206724    -0.39200
O1495       O  0.50176143  0.76451278  0.68424948    -0.39900
O1496       O  0.45615140  0.74596113  0.66000549    -0.39900
C1497       C  0.11522343  0.96266996  0.70996153    -0.12200
C1498       C  0.11373426  0.94550504  0.73278123     0.04800
C1499       C  0.10753681  0.91139511  0.73178189    -0.07500
C1500       C  0.09943214  0.89370891  0.70839211    -0.08300
C1501       C  0.09583272  0.90905746  0.68609464    -0.02800
C1502       C  0.10565883  0.94448426  0.68663554     0.04000
N1503       N  0.10160233  0.96089152  0.66459566     0.66500
H1504       H  0.12087891  0.98932527  0.71060488     0.15400
H1505       H  0.09151021  0.86633966  0.70829918     0.15100
N1506       N  0.10702478  0.89365429  0.75460237     0.74200
O1507       O  0.07170049  0.95456019  0.65842227    -0.39200
O1508       O  0.12805084  0.98604136  0.65423187    -0.39200
O1509       O  0.07832827  0.87161682  0.76460751    -0.39900
O1510       O  0.13480492  0.89625459  0.76256427    -0.39900
C1511       C  0.02049250  0.83421503  0.58634815    -0.12200
C1512       C  0.05014574  0.84979523  0.60191410     0.04800
C1513       C  0.08284783  0.86048396  0.59037645    -0.07500
C1514       C  0.08526456  0.85613797  0.56391005    -0.08300
C1515       C  0.05560586  0.84101478  0.54829847    -0.02800
C1516       C  0.02285129  0.82993640  0.55996531     0.04000
N1517       N  0.99171331  0.81563272  0.54524773     0.66500
H1518       H  0.99510604  0.82608044  0.59451724     0.15400
H1519       H  0.11065113  0.86467829  0.55557519     0.15100
N1520       N  0.11383859  0.87507765  0.60525034     0.74200
O1521       O  0.97073503  0.78317739  0.54526576    -0.39200
O1522       O  0.98254400  0.83563222  0.53579032    -0.39200
O1523       O  0.12151590  0.85522065  0.61685561    -0.39900
O1524       O  0.13576995  0.90725510  0.60389229    -0.39900
C1525       C  0.12468808  0.62564085  0.71213143    -0.12200
C1526       C  0.10999337  0.60630740  0.68972759     0.04800
C1527       C  0.10571302  0.57285969  0.68730930    -0.07500
C1528       C  0.11331154  0.55830961  0.70820834    -0.08300
C1529       C  0.12411058  0.57630729  0.73161975    -0.02800
C1530       C  0.13163405  0.61093884  0.73304325     0.04000
N1531       N  0.14632018  0.63140972  0.75561058     0.66500
H1532       H  0.12845985  0.65155359  0.71403520     0.15400
H1533       H  0.10805892  0.53181443  0.70679367     0.15100
N1534       N  0.08996887  0.55184749  0.66512325     0.74200
O1535       O  0.17602934  0.63836108  0.76284247    -0.39200
O1536       O  0.13145802  0.64557107  0.76669586    -0.39200
O1537       O  0.10631029  0.54067071  0.65225768    -0.39900
O1538       O  0.05793221  0.53932407  0.66120615    -0.39900
C1539       C  0.48525713  0.60682301  0.68692119    -0.12200
C1540       C  0.01602815  0.62656641  0.69142418     0.04800
C1541       C  0.02442196  0.63893740  0.71689422    -0.07500
C1542       C  0.50444295  0.62078864  0.73841116    -0.08300
C1543       C  0.46987236  0.59735294  0.73215325    -0.02800
C1544       C  0.45974094  0.59234960  0.70623725     0.04000
N1545       N  0.42412221  0.57030698  0.69930585     0.66500
H1546       H  0.47776930  0.59933602  0.66719003     0.15400
H1547       H  0.51207243  0.62606201  0.75832229     0.15100
N1548       N  0.05867285  0.66648182  0.72329043     0.74200
O1549       O  0.41464732  0.54185115  0.68794126    -0.39200
O1550       O  0.40365121  0.58190528  0.70059344    -0.39200
O1551       O  0.07016791  0.69645098  0.71397363    -0.39900
O1552       O  0.07589169  0.66194553  0.74025387    -0.39900
C1553       C  0.09130408  0.62175277  0.56501063    -0.12200
C1554       C  0.06936191  0.63060084  0.55221183     0.04800
C1555       C  0.04703972  0.63761094  0.56709818    -0.07500
C1556       C  0.04675882  0.63514667  0.59392825    -0.08300
C1557       C  0.06868086  0.62614837  0.60673814    -0.02800
C1558       C  0.09134821  0.61962343  0.59171991     0.04000
N1559       N  0.11463425  0.61054798  0.60302524     0.66500
H1560       H  0.10883806  0.61630774  0.55423787     0.15400
H1561       H  0.02926376  0.64058260  0.60474417     0.15100
N1562       N  0.53024091  0.65384127  0.55659781     0.74200
O1563       O  0.10698511  0.57915189  0.60298914    -0.39200
O1564       O  0.14529916  0.63419621  0.60816025    -0.39200
O1565       O  0.49829132  0.63550402  0.55151699    -0.39900
O1566       O  0.03517987  0.67876017  0.55056239    -0.39900
C1567       C  0.56840884  0.13202796  0.63616674     0.80300
N1568       N  0.54392226  0.13568280  0.64950151    -0.78000
C1569       C  0.54317959  0.13455972  0.67554566     0.82700
N1570       N  0.56584951  0.12855034  0.68787555    -0.78000
C1571       C  0.58911316  0.12334358  0.67525551     0.82800
N1572       N  0.59031868  0.12465621  0.64923103    -0.79700
C1573       C  0.54864741  0.33941185  0.63306775     0.80300
N1574       N  0.57636833  0.36331444  0.64714488    -0.78000
C1575       C  0.57304683  0.36505180  0.67293750     0.82700
N1576       N  0.54218222  0.34404163  0.68430028    -0.78000
C1577       C  0.51434213  0.32119144  0.67079257     0.82800
N1578       N  0.51729660  0.31887896  0.64507914    -0.79700
C1579       C  0.94555034  0.45837579  0.79554917     0.03200
C1580       C  0.92538669  0.42154721  0.79618801    -0.13000
C1581       C  0.94085014  0.40104564  0.79931853     0.00700
C1582       C  0.97768315  0.41823081  0.80083183    -0.11500
C1583       C  0.99895270  0.45502186  0.79930965     0.03200
C1584       C  0.98227205  0.47469505  0.79693406    -0.10900
H1585       H  0.89729731  0.40880115  0.79551364     0.08800
H1586       H  0.98990488  0.40281843  0.80317225     0.06300
H1587       H  0.99787093  0.50286395  0.79654785     0.06100
O1588       O  0.81560007  0.00519704  0.77721456    -0.85300
O1589       O  0.86754473  0.06956553  0.79461028    -0.82400
C1590       C  0.89636838  0.09368237  0.80285768     0.98200
O1591       O  0.92278993  0.09006633  0.80309549    -0.82400
O1592       O  0.90994348  0.03960760  0.83860219    -0.85000
C1593       C  0.89086664  0.01093985  0.84976357     1.02700
O1594       O  0.87323311  0.98322360  0.83704930    -0.77800
O1595       O  0.82298567  0.48294776  0.81333077    -0.78000
C1596       C  0.80209728  0.99187273  0.79851778     1.02600
O1597       O  0.86703431  0.51396325  0.74259021    -0.85300
O1598       O  0.91102427  0.07293842  0.75358799    -0.82400
C1599       C  0.93899281  0.07284540  0.75159411     0.98200
O1600       O  0.94623093  0.05639437  0.76753002    -0.82400
O1601       O  0.93762376  0.00817483  0.80464912    -0.85000
C1602       C  0.92769374  0.47931856  0.79538978     1.02600
O1603       O  0.89695654  0.46569850  0.78727426    -0.77800
O1604       O  0.84137689  0.46434154  0.76397568    -0.78000
C1605       C  0.85049495  0.48134837  0.74309702     1.02600
Cr1606     Cr  0.86597542  0.03669384  0.76871186     1.93700
Cr1607     Cr  0.92578502  0.04627764  0.80253915     1.93200
Cr1608     Cr  0.86200327  0.47790338  0.79928290     1.39100
O1609       O  0.88296980  0.01928718  0.79082871    -1.23100
O1610       O  0.86187081  0.21311539  0.80419084    -0.85300
O1611       O  0.80673512  0.22124771  0.79249456    -0.82400
C1612       C  0.79591499  0.22572643  0.81371869     0.98200
O1613       O  0.81378861  0.25368015  0.82610839    -0.82400
O1614       O  0.87407106  0.30965072  0.84504960    -0.85000
C1615       C  0.88999269  0.29709401  0.85678341     1.02700
O1616       O  0.90638891  0.28553256  0.84432817    -0.77800
O1617       O  0.91783090  0.24936955  0.80603211    -0.78000
C1618       C  0.89192121  0.21885651  0.80877577     1.02600
O1619       O  0.89847615  0.25256593  0.75930055    -0.85300
O1620       O  0.84634729  0.26619770  0.75174156    -0.82400
C1621       C  0.82776500  0.27954918  0.75522679     0.98200
O1622       O  0.82430592  0.28911706  0.77755482    -0.82400
O1623       O  0.88687081  0.34534252  0.79610509    -0.85000
C1624       C  0.91873337  0.36194791  0.80227762     1.02600
O1625       O  0.93209573  0.34548647  0.81175735    -0.77800
O1626       O  0.93392353  0.30630748  0.77143662    -0.78000
C1627       C  0.92387354  0.28267805  0.75469678     1.02600
Cr1628     Cr  0.85503900  0.24128210  0.77869302     1.93700
Cr1629     Cr  0.85165861  0.29808177  0.81024574     1.93200
Cr1630     Cr  0.91914696  0.29537487  0.80771000     1.39100
O1631       O  0.87511510  0.27841695  0.79892379    -1.23100
O1632       O  0.67946589  0.08267264  0.79647395    -0.85300
O1633       O  0.68297723  0.02435682  0.80955630    -0.82400
C1634       C  0.67534836  0.99323259  0.81221164     0.98200
O1635       O  0.64463274  0.46041917  0.80844212    -0.82400
O1636       O  0.60679247  0.47406901  0.84400174    -0.85000
C1637       C  0.59631664  0.99851992  0.85843461     1.02700
O1638       O  0.58804056  0.01828783  0.84693105    -0.77800
O1639       O  0.64511733  0.07756050  0.82827167    -0.78000
C1640       C  0.67366624  0.09477857  0.81650777     1.02600
O1641       O  0.63644975  0.04487066  0.75449696    -0.85300
O1642       O  0.64714075  0.47940424  0.76158136    -0.82400
C1643       C  0.61736433  0.45441591  0.75630529     0.98200
O1644       O  0.59182883  0.44678724  0.77097463    -0.82400
O1645       O  0.55058130  0.45377329  0.80858288    -0.85000
C1646       C  0.53719915  0.47126883  0.80079191     1.02600
O1647       O  0.55387267  0.00774786  0.79759275    -0.77800
O1648       O  0.61227146  0.06762659  0.77863867    -0.78000
C1649       C  0.62271296  0.06328098  0.75688042     1.02600
Cr1650     Cr  0.65823536  0.03426015  0.78273043     1.93700
Cr1651     Cr  0.59987094  0.46220365  0.80735705     1.93200
Cr1652     Cr  0.60120243  0.04051593  0.81191497     1.39100
O1653       O  0.61933904  0.01504800  0.80137278    -1.23100
C1654       C  0.78271464  0.34581989  0.63038376     0.80300
N1655       N  0.77698600  0.31963037  0.64695527    -0.78000
C1656       C  0.78209488  0.32656345  0.67255759     0.82700
N1657       N  0.79421971  0.35927946  0.68084036    -0.78000
C1658       C  0.80099941  0.38531133  0.66476044     0.82800
N1659       N  0.79532115  0.37883892  0.63944464    -0.79700
C1660       C  0.71773215  0.43724581  0.29636327     0.80300
N1661       N  0.69131514  0.43694226  0.31008587    -0.78000
C1662       C  0.69194387  0.43678141  0.33614360     0.82700
N1663       N  0.71844786  0.43671144  0.34805439    -0.78000
C1664       C  0.74424556  0.43641824  0.33487657     0.82800
N1665       N  0.74391927  0.43638737  0.30893806    -0.79700
C1666       C  0.94750332  0.16789467  0.30182734     0.80300
N1667       N  0.94573561  0.19197039  0.31722345    -0.78000
C1668       C  0.94885813  0.19095131  0.34306934     0.82700
N1669       N  0.95430524  0.16650272  0.35313661    -0.78000
C1670       C  0.95712734  0.14325479  0.33853854     0.82800
N1671       N  0.95426632  0.14408052  0.31269921    -0.79700
C1672       C  0.61585979  0.28916106  0.46541020     0.03200
C1673       C  0.59892920  0.25231300  0.46656418    -0.13000
C1674       C  0.61785627  0.23480635  0.46688072     0.00700
C1675       C  0.65448810  0.25503722  0.46600850    -0.11500
C1676       C  0.67239339  0.29189543  0.46434948     0.03200
C1677       C  0.65267774  0.30857025  0.46374612    -0.10900
H1678       H  0.57081137  0.23716340  0.46782252     0.08800
H1679       H  0.66920350  0.24188314  0.46662323     0.06300
H1680       H  0.66606611  0.33674988  0.46319793     0.06100
O1681       O  0.99583368  0.35369742  0.46970017    -0.85300
O1682       O  0.55622771  0.40895382  0.45429247    -0.82400
C1683       C  0.57048403  0.42148085  0.47546568     0.98200
O1684       O  0.58152985  0.40579027  0.48887791    -0.82400
O1685       O  0.58304059  0.34990111  0.50978597    -0.85000
C1686       C  0.55447479  0.33130347  0.52167013     1.02700
O1687       O  0.52692881  0.31244338  0.50943781    -0.77800
O1688       O  0.97817978  0.29845667  0.47454788    -0.78000
C1689       C  0.97261504  0.32352530  0.47629552     1.02600
O1690       O  0.49797810  0.31450819  0.42470528    -0.85300
O1691       O  0.56388035  0.36878895  0.41530111    -0.82400
C1692       C  0.59588588  0.38982742  0.41837093     0.98200
O1693       O  0.60899024  0.39655525  0.44068969    -0.82400
O1694       O  0.60845958  0.33884675  0.46135282    -0.85000
C1695       C  0.59506127  0.30712429  0.46745775     1.02600
O1696       O  0.56413014  0.29052763  0.47609515    -0.77800
O1697       O  0.51809048  0.28166511  0.43770482    -0.78000
C1698       C  0.50081571  0.28796742  0.42199087     1.02600
Cr1699     Cr  0.52968065  0.35954269  0.44248256     1.93700
Cr1700     Cr  0.59206517  0.37049538  0.47424764     1.93200
Cr1701     Cr  0.52381009  0.29880399  0.47328126     1.39100
O1702       O  0.54887108  0.34290419  0.46325458    -1.23100
O1703       O  0.54842705  0.04712563  0.47303332    -0.85300
O1704       O  0.99244555  0.05302131  0.45599329    -0.82400
C1705       C  0.97901575  0.05565532  0.47654092     0.98200
O1706       O  0.99453749  0.08294596  0.48980378    -0.82400
O1707       O  0.55163358  0.14155597  0.51116351    -0.85000
C1708       C  0.56973900  0.13300801  0.52449161     1.02700
O1709       O  0.58889741  0.12334934  0.51389106    -0.77800
O1710       O  0.60348783  0.08462545  0.47996037    -0.78000
C1711       C  0.57784771  0.05343431  0.48051970     1.02600
O1712       O  0.59062529  0.08602541  0.43076210    -0.85300
O1713       O  0.54162438  0.10196504  0.41718129    -0.82400
C1714       C  0.52123136  0.11355168  0.41827730     0.98200
O1715       O  0.51165238  0.11979137  0.43974037    -0.82400
O1716       O  0.56805239  0.17729591  0.46238720    -0.85000
C1717       C  0.59943060  0.19563017  0.46917784     1.02600
O1718       O  0.61504524  0.18103056  0.47843957    -0.77800
O1719       O  0.62434538  0.14004880  0.44275161    -0.78000
C1720       C  0.61756565  0.11530076  0.42760760     1.02600
Cr1721     Cr  0.54527001  0.07561808  0.44570543     1.93700
Cr1722     Cr  0.53429404  0.12930930  0.47481803     1.93200
Cr1723     Cr  0.60455541  0.13094818  0.47788187     1.39100
O1724       O  0.56148458  0.11233939  0.46625329    -1.23100
O1725       O  0.85416891  0.41912101  0.45479816    -0.85300
O1726       O  0.85906214  0.36271182  0.47046567    -0.82400
C1727       C  0.85124988  0.33193132  0.47534210     0.98200
O1728       O  0.82062940  0.30698017  0.47133342    -0.82400
O1729       O  0.78322131  0.31920814  0.50780196    -0.85000
C1730       C  0.77356696  0.33770421  0.51964481     1.02700
O1731       O  0.76486013  0.35660607  0.50748211    -0.77800
O1732       O  0.82224187  0.41550279  0.48777798    -0.78000
C1733       C  0.84979140  0.43236081  0.47473165     1.02600
O1734       O  0.81058591  0.37898143  0.41478180    -0.85300
O1735       O  0.82261608  0.32633617  0.42522819    -0.82400
C1736       C  0.79260677  0.30285432  0.41874835     0.98200
O1737       O  0.76728451  0.29387675  0.43398376    -0.82400
O1738       O  0.72680391  0.29699203  0.47353235    -0.85000
C1739       C  0.71153979  0.31224276  0.46543592     1.02600
O1740       O  0.72929528  0.34407561  0.45918225    -0.77800
O1741       O  0.78746136  0.40316617  0.43857664    -0.78000
C1742       C  0.79680198  0.39744435  0.41686309     1.02600
Cr1743     Cr  0.83359632  0.37035324  0.44308688     1.93700
Cr1744     Cr  0.77590257  0.30763916  0.47088646     1.93200
Cr1745     Cr  0.77740056  0.37774914  0.47238657     1.39100
O1746       O  0.79536997  0.35211250  0.46228215    -1.23100
C1747       C  0.72834068  0.17823264  0.30035803     0.80300
N1748       N  0.75229363  0.21076436  0.30909486    -0.78000
C1749       C  0.75501162  0.21759666  0.33455007     0.82700
N1750       N  0.73371602  0.19265590  0.35088357    -0.78000
C1751       C  0.70933537  0.16077561  0.34296663     0.82800
N1752       N  0.70621634  0.15335783  0.31744258    -0.79700
C1753       C  0.88353236  0.01469058  0.96090630     0.80300
N1754       N  0.84996918  0.48866503  0.97123072    -0.78000
C1755       C  0.84595182  0.49136519  0.99686399     0.82700
N1756       N  0.87625114  0.01915309  0.01209007    -0.78000
C1757       C  0.90610307  0.04251180  0.00052106     0.82800
N1758       N  0.90965872  0.04080467  0.97482646    -0.79700
C1759       C  0.88022989  0.28029492  0.96790178     0.80300
N1760       N  0.85256539  0.27951729  0.98003153    -0.78000
C1761       C  0.84864113  0.27502041  0.00578308     0.82700
N1762       N  0.87138491  0.27025651  0.01910580    -0.78000
C1763       C  0.89794220  0.26948526  0.00756693     0.82800
N1764       N  0.90255486  0.27441813  0.98182461    -0.79700
C1765       C  0.77233037  0.11212147  0.13229501     0.03200
C1766       C  0.80913108  0.13029635  0.13332998    -0.13000
C1767       C  0.82782834  0.11248129  0.13365911     0.00700
C1768       C  0.80896838  0.07574619  0.13241736    -0.11500
C1769       C  0.77219215  0.05647000  0.13148239     0.03200
C1770       C  0.75422015  0.07508189  0.13140896    -0.10900
H1771       H  0.82326330  0.15846830  0.13453205     0.08800
H1772       H  0.82308079  0.06196615  0.13288235     0.06300
H1773       H  0.72605565  0.06070894  0.13121618     0.06100
O1774       O  0.51453652  0.23177116  0.13665393    -0.85300
O1775       O  0.50761311  0.17124447  0.11662639    -0.82400
C1776       C  0.50594190  0.15431772  0.13624715     0.98200
O1777       O  0.48019756  0.14361984  0.15123149    -0.82400
O1778       O  0.92318183  0.13913587  0.17718823    -0.85000
C1779       C  0.93347796  0.16658743  0.19044945     1.02700
O1780       O  0.94164503  0.19513481  0.17981463    -0.77800
O1781       O  0.47746584  0.24919768  0.14396024    -0.78000
C1782       C  0.50806540  0.25435706  0.14527880     1.02600
O1783       O  0.97460947  0.23248962  0.09641446    -0.85300
O1784       O  0.95882871  0.16651543  0.08201467    -0.82400
C1785       C  0.94707856  0.13419196  0.08337994     0.98200
O1786       O  0.94035845  0.11890673  0.10500334    -0.82400
O1787       O  0.88436464  0.11826447  0.12946782    -0.85000
C1788       C  0.86685317  0.13203124  0.13643118     1.02600
O1789       O  0.88214278  0.16218562  0.14631678    -0.77800
O1790       O  0.92086491  0.20978452  0.10908052    -0.78000
C1791       C  0.94438837  0.22670977  0.09268283     1.02600
Cr1792     Cr  0.48632071  0.19992467  0.10920193     1.93700
Cr1793     Cr  0.93292808  0.13288933  0.14037647     1.93200
Cr1794     Cr  0.93191619  0.20171907  0.14412309     1.39100
O1795       O  0.94978801  0.17703039  0.13170030    -1.23100
O1796       O  0.70530837  0.36980868  0.13641426    -0.85300
O1797       O  0.64737792  0.37315041  0.12501693    -0.82400
C1798       C  0.63592740  0.37899758  0.14538667     0.98200
O1799       O  0.65239286  0.40811025  0.15644001    -0.82400
O1800       O  0.71168168  0.46548845  0.17405755    -0.85000
C1801       C  0.72831800  0.45382806  0.18584395     1.02700
O1802       O  0.74634254  0.44393057  0.17359450    -0.77800
O1803       O  0.76063100  0.40835535  0.13636603    -0.78000
C1804       C  0.73608989  0.37757214  0.14094710     1.02600
O1805       O  0.73801906  0.40774166  0.08968639    -0.85300
O1806       O  0.68220358  0.41599234  0.08232830    -0.82400
C1807       C  0.66357770  0.42947180  0.08546251     0.98200
O1808       O  0.66082483  0.44063490  0.10729372    -0.82400
O1809       O  0.72167988  0.49945715  0.12500182    -0.85000
C1810       C  0.75321856  0.51759456  0.13157100     1.02600
O1811       O  0.76847669  0.50239115  0.14009068    -0.77800
O1812       O  0.77155808  0.46258342  0.10003427    -0.78000
C1813       C  0.76152197  0.43825636  0.08377829     1.02600
Cr1814     Cr  0.69485872  0.39482945  0.11000717     1.93700
Cr1815     Cr  0.68880431  0.45198172  0.13965077     1.93200
Cr1816     Cr  0.75838218  0.45291642  0.13682297     1.39100
O1817       O  0.71377347  0.43344166  0.12876750    -1.23100
O1818       O  0.65603065  0.18190675  0.14108856    -0.85300
O1819       O  0.71788492  0.23806432  0.12500798    -0.82400
C1820       C  0.73629989  0.25126048  0.14458453     0.98200
O1821       O  0.74875848  0.23540447  0.15621151    -0.82400
O1822       O  0.74813220  0.17761310  0.17567288    -0.85000
C1823       C  0.72105122  0.16192697  0.18959603     1.02700
O1824       O  0.69144493  0.14381245  0.17952262    -0.77800
O1825       O  0.63808276  0.12661269  0.14461790    -0.78000
C1826       C  0.63203745  0.15137867  0.14591408     1.02600
O1827       O  0.65616623  0.14415443  0.09610412    -0.85300
O1828       O  0.72055018  0.19754756  0.08392852    -0.82400
C1829       C  0.75288304  0.21781916  0.08529635     0.98200
O1830       O  0.76869446  0.22294439  0.10643538    -0.82400
O1831       O  0.76646432  0.16276781  0.12610752    -0.85000
C1832       C  0.75290547  0.13167965  0.13412857     1.02600
O1833       O  0.72314190  0.11729113  0.14478026    -0.77800
O1834       O  0.67467299  0.10927732  0.10809731    -0.78000
C1835       C  0.65855259  0.11748685  0.09254748     1.02600
Cr1836     Cr  0.68933996  0.18891406  0.11327518     1.93700
Cr1837     Cr  0.75436846  0.19743020  0.14030122     1.93200
Cr1838     Cr  0.68407049  0.12781545  0.14350556     1.39100
O1839       O  0.70960897  0.17141966  0.13218507    -1.23100
C1840       C  0.61056702  0.00008288  0.96895683     0.80300
N1841       N  0.61069043  0.47536838  0.98028930    -0.78000
C1842       C  0.61846810  0.47962136  0.00565062     0.82700
N1843       N  0.61375403  0.99757363  0.02051563    -0.78000
C1844       C  0.61204351  0.02391904  0.00978557     0.82800
N1845       N  0.61068669  0.02550133  0.98385347    -0.79700
C1846       C  0.65633523  0.10816731  0.04580330    -0.12200
C1847       C  0.64176982  0.09584317  0.07008455     0.04800
C1848       C  0.61191414  0.06279405  0.07258504    -0.07500
C1849       C  0.59911648  0.04108828  0.05119118    -0.08300
C1850       C  0.61618792  0.05169093  0.02731488    -0.02800
C1851       C  0.64397606  0.08621163  0.02438685     0.04000
N1852       N  0.66279578  0.09790419  0.00081496     0.66500
H1853       H  0.67900161  0.13401724  0.04380423     0.15400
H1854       H  0.57760561  0.01465832  0.05373438     0.15100
N1855       N  0.59529133  0.05050533  0.09691509     0.74200
O1856       O  0.66157695  0.12127735  0.98821465    -0.39200
O1857       O  0.68633673  0.09102835  0.99584954    -0.39200
O1858       O  0.57157297  0.05624288  0.10391168    -0.39900
O1859       O  0.60127928  0.03044999  0.10994152    -0.39900
C1860       C  0.71487102  0.31976792  0.16129898    -0.12200
C1861       C  0.74243474  0.34925718  0.14959956     0.04800
C1862       C  0.77271505  0.34817146  0.14329490    -0.07500
C1863       C  0.77236021  0.31637930  0.14503735    -0.08300
C1864       C  0.74226802  0.28565840  0.15302270    -0.02800
C1865       C  0.71407399  0.28807235  0.16254017     0.04000
N1866       N  0.68327130  0.25782565  0.17167003     0.66500
H1867       H  0.69297293  0.32092951  0.16848341     0.15400
H1868       H  0.79478783  0.31521128  0.13847934     0.15100
N1869       N  0.80321741  0.37838676  0.13389119     0.74200
O1870       O  0.68203838  0.24757025  0.19431486    -0.39200
O1871       O  0.65585850  0.24458892  0.15856451    -0.39200
O1872       O  0.82285394  0.40196236  0.14936802    -0.39900
O1873       O  0.81373132  0.37864801  0.11136173    -0.39900
C1874       C  0.65859214  0.43495259  0.03827501    -0.12200
C1875       C  0.64516497  0.43281703  0.06314970     0.04800
C1876       C  0.61588764  0.43663275  0.06634503    -0.07500
C1877       C  0.60371638  0.44691457  0.04562699    -0.08300
C1878       C  0.62014379  0.45355935  0.02159994    -0.02800
C1879       C  0.64642802  0.44551232  0.01752818     0.04000
N1880       N  0.66399801  0.45224292  0.99337631     0.66500
H1881       H  0.68062452  0.43142679  0.03527176     0.15400
H1882       H  0.58329726  0.45285128  0.04890702     0.15100
N1883       N  0.59921033  0.43176549  0.09072295     0.74200
O1884       O  0.68663446  0.48301212  0.98728115    -0.39200
O1885       O  0.66024259  0.42715865  0.97971215    -0.39200
O1886       O  0.60178531  0.45763324  0.10267198    -0.39900
O1887       O  0.57768619  0.40136344  0.09832115    -0.39900
C1888       C  0.57814029  0.13498764  0.12340316    -0.12200
C1889       C  0.59590205  0.14419042  0.14665244     0.04800
C1890       C  0.58163154  0.15269561  0.16771471    -0.07500
C1891       C  0.55093940  0.15397656  0.16456742    -0.08300
C1892       C  0.53454733  0.14717771  0.14060311    -0.02800
C1893       C  0.54812542  0.13678546  0.12002850     0.04000
N1894       N  0.53243928  0.12881088  0.09524961     0.66500
H1895       H  0.58903667  0.12866279  0.10705140     0.15400
H1896       H  0.54068555  0.16162514  0.18056831     0.15100
N1897       N  0.59805556  0.16012094  0.19219692     0.74200
O1898       O  0.53867290  0.15339363  0.08021222    -0.39200
O1899       O  0.52131987  0.09874979  0.08609233    -0.39200
O1900       O  0.60317138  0.18660281  0.20468470    -0.39900
O1901       O  0.60389696  0.13817300  0.20259797    -0.39900
C1902       C  0.56783542  0.28785292  0.16128804    -0.12200
C1903       C  0.53768864  0.28781382  0.15443125     0.04800
C1904       C  0.53929078  0.32013071  0.15179848    -0.07500
C1905       C  0.57187743  0.35127612  0.15196609    -0.08300
C1906       C  0.60255006  0.35044779  0.15543749    -0.02800
C1907       C  0.59994224  0.31860504  0.16161680     0.04000
N1908       N  0.63021872  0.31649972  0.16563412     0.66500
H1909       H  0.56701924  0.26344611  0.16441092     0.15400
H1910       H  0.57340212  0.37565567  0.14739280     0.15100
N1911       N  0.50866779  0.32160102  0.14703159     0.74200
O1912       O  0.64663934  0.32795043  0.18630915    -0.39200
O1913       O  0.63543780  0.29640953  0.15166726    -0.39200
O1914       O  0.48867481  0.31827095  0.16541433    -0.39900
O1915       O  0.50424104  0.33113551  0.12542285    -0.39900
C1916       C  0.76475124  0.21895032  0.03839590    -0.12200
C1917       C  0.77239001  0.23646232  0.06200856     0.04800
C1918       C  0.79961556  0.27142539  0.06323037    -0.07500
C1919       C  0.82175050  0.28654262  0.04218730    -0.08300
C1920       C  0.81701087  0.26738832  0.01971140    -0.02800
C1921       C  0.78697440  0.23414549  0.01722435     0.04000
N1922       N  0.78111089  0.21384941  0.99451269     0.66500
H1923       H  0.74320276  0.19238366  0.03695207     0.15400
H1924       H  0.84455888  0.31228495  0.04418547     0.15100
N1925       N  0.80468321  0.29197847  0.08559430     0.74200
O1926       O  0.79970593  0.20069681  0.98966506    -0.39200
O1927       O  0.75457212  0.20527134  0.98114281    -0.39200
O1928       O  0.83289297  0.30482176  0.09770469    -0.39900
O1929       O  0.78395553  0.30269301  0.09014229    -0.39900
C1930       C  0.90437638  0.21439982  0.05711743    -0.12200
C1931       C  0.93608837  0.23769752  0.06852449     0.04800
C1932       C  0.95853157  0.27006067  0.05650109    -0.07500
C1933       C  0.94763838  0.27902873  0.03410677    -0.08300
C1934       C  0.91538636  0.25581432  0.02317866    -0.02800
C1935       C  0.89420080  0.22276420  0.03444634     0.04000
N1936       N  0.86064645  0.19867055  0.02423904     0.66500
H1937       H  0.88716072  0.18937647  0.06596845     0.15400
H1938       H  0.96326608  0.30502195  0.02628032     0.15100
N1939       N  0.99057531  0.29538715  0.06805448     0.74200
O1940       O  0.85787631  0.18847216  0.00133644    -0.39200
O1941       O  0.83394301  0.18631652  0.03842580    -0.39200
O1942       O  0.51673955  0.28786877  0.06379328    -0.39900
O1943       O  0.49987991  0.32541744  0.06910924    -0.39900
C1944       C  0.80948546  0.43962264  0.02274448    -0.12200
C1945       C  0.81353437  0.46960142  0.01104785     0.04800
C1946       C  0.79582186  0.48556751  0.02133792    -0.07500
C1947       C  0.77761432  0.47368539  0.04449038    -0.08300
C1948       C  0.77634771  0.44572612  0.05757995    -0.02800
C1949       C  0.79080176  0.42720489  0.04584607     0.04000
N1950       N  0.79007027  0.39824041  0.05820806     0.66500
H1951       H  0.82368272  0.42775937  0.01517329     0.15400
H1952       H  0.76588299  0.48753713  0.05296116     0.15100
N1953       N  0.80462618  0.01953062  0.01339921     0.74200
O1954       O  0.76131944  0.37161360  0.06392013    -0.39200
O1955       O  0.81729007  0.39634884  0.05862530    -0.39200
O1956       O  0.78168927  0.01774017  0.99853703    -0.39900
O1957       O  0.82777060  0.04880483  0.02179952    -0.39900
C1958       C  0.93117744  0.10299342  0.01412704    -0.12200
C1959       C  0.93096171  0.07165154  0.01635508     0.04800
C1960       C  0.94089529  0.06356616  0.03962168    -0.07500
C1961       C  0.94614803  0.08441363  0.06116966    -0.08300
C1962       C  0.94328037  0.11422737  0.05966241    -0.02800
C1963       C  0.93728947  0.12436998  0.03555120     0.04000
N1964       N  0.93271731  0.15363413  0.03315347     0.66500
H1965       H  0.92245202  0.10880002  0.99654711     0.15400
H1966       H  0.95182546  0.07685701  0.07931280     0.15100
N1967       N  0.94250920  0.03240332  0.04197320     0.74200
O1968       O  0.44817363  0.18104593  0.02195725    -0.39200
O1969       O  0.90244107  0.14901057  0.03415954    -0.39200
O1970       O  0.95703878  0.02425983  0.02469290    -0.39900
O1971       O  0.92960702  0.01302129  0.06132774    -0.39900
C1972       C  0.75575426  0.19243831  0.25705392    -0.12200
C1973       C  0.72639360  0.17108323  0.27229228     0.04800
C1974       C  0.69593057  0.14515162  0.26003621    -0.07500
C1975       C  0.69495268  0.14251857  0.23323669    -0.08300
C1976       C  0.72401503  0.16463510  0.21801167    -0.02800
C1977       C  0.75494461  0.18945080  0.23035514     0.04000
N1978       N  0.78556086  0.21277782  0.21615823     0.66500
H1979       H  0.77966351  0.21217859  0.26586489     0.15400
H1980       H  0.67107978  0.12288440  0.22431948     0.15100
N1981       N  0.66542491  0.12163947  0.27422340     0.74200
O1982       O  0.78936223  0.24107262  0.20799198    -0.39200
O1983       O  0.81098097  0.20789393  0.21549076    -0.39200
O1984       O  0.63787700  0.12243417  0.27113921    -0.39900
O1985       O  0.66358051  0.09504158  0.28415722    -0.39900
C1986       C  0.76214898  0.28446650  0.37710585    -0.12200
C1987       C  0.78793836  0.28663459  0.39333148     0.04800
C1988       C  0.81016511  0.27496379  0.38445805    -0.07500
C1989       C  0.80364407  0.25769075  0.36087490    -0.08300
C1990       C  0.77551390  0.25229221  0.34581837    -0.02800
C1991       C  0.75656693  0.26841772  0.35305008     0.04000
N1992       N  0.72833896  0.26417884  0.33759319     0.66500
H1993       H  0.74602396  0.29487563  0.38327910     0.15400
H1994       H  0.81773934  0.24460485  0.35592933     0.15100
N1995       N  0.83673098  0.27671416  0.40049908     0.74200
O1996       O  0.69859427  0.25305148  0.34739811    -0.39200
O1997       O  0.73269062  0.26993463  0.31382446    -0.39200
O1998       O  0.83032193  0.25098606  0.41431006    -0.39900
O1999       O  0.86765373  0.30155885  0.39800649    -0.39900
C2000       C  0.88563198  0.49209347  0.45958579    -0.12200
C2001       C  0.87685681  0.46908972  0.48017009     0.04800
C2002       C  0.89995514  0.47918025  0.50109182    -0.07500
C2003       C  0.93280799  0.51033292  0.49948296    -0.08300
C2004       C  0.94514470  0.02573965  0.48450784    -0.02800
C2005       C  0.91380134  0.02572987  0.48176132     0.04000
N2006       N  0.91426282  0.05697113  0.47518657     0.66500
H2007       H  0.86837106  0.48454560  0.44336449     0.15400
H2008       H  0.95138914  0.51705093  0.51477208     0.15100
N2009       N  0.89130748  0.45737341  0.52324528     0.74200
O2010       O  0.91060134  0.06273492  0.45215184    -0.39200
O2011       O  0.91261887  0.07574623  0.49264512    -0.39200
O2012       O  0.91454418  0.45452305  0.53457177    -0.39900
O2013       O  0.86159543  0.44466816  0.53348190    -0.39900
C2014       C  0.62693843  0.10902545  0.38158678    -0.12200
C2015       C  0.64097831  0.11988220  0.40618159     0.04800
C2016       C  0.67715570  0.13685995  0.40949140    -0.07500
C2017       C  0.69853037  0.14399244  0.38806072    -0.08300
C2018       C  0.68502427  0.13793356  0.36306998    -0.02800
C2019       C  0.64865876  0.11892427  0.35988874     0.04000
N2020       N  0.63338581  0.11370768  0.33516934     0.66500
H2021       H  0.59902254  0.09595437  0.37900277     0.15400
H2022       H  0.72644091  0.15792892  0.39089490     0.15100
N2023       N  0.69276957  0.14913002  0.43411283     0.74200
O2024       O  0.61377547  0.08308044  0.32709852    -0.39200
O2025       O  0.63256474  0.13859750  0.32455887    -0.39200
O2026       O  0.68184577  0.12926566  0.45331159    -0.39900
O2027       O  0.71831686  0.17971150  0.43656689    -0.39900
C2028       C  0.87778820  0.29493017  0.47201352    -0.12200
C2029       C  0.87885018  0.32464900  0.48228217     0.04800
C2030       C  0.90831567  0.34873147  0.49620851    -0.07500
C2031       C  0.93710251  0.34442062  0.49743152    -0.08300
C2032       C  0.93817315  0.31808692  0.48351159    -0.02800
C2033       C  0.90738899  0.29172608  0.47220066     0.04000
N2034       N  0.90665716  0.26340636  0.45879149     0.66500
H2035       H  0.85502687  0.27569510  0.46176539     0.15400
H2036       H  0.95983993  0.36321929  0.50770866     0.15100
N2037       N  0.91022812  0.37867784  0.50794281     0.74200
O2038       O  0.89232954  0.23378300  0.46918262    -0.39200
O2039       O  0.91368377  0.26620587  0.43515983    -0.39200
O2040       O  0.90658410  0.37925447  0.53188843    -0.39900
O2041       O  0.92266300  0.40668964  0.49543379    -0.39900
C2042       C  0.60568247  0.48626731  0.47793428    -0.12200
C2043       C  0.57451853  0.45527503  0.48340748     0.04800
C2044       C  0.54531066  0.45731312  0.49099875    -0.07500
C2045       C  0.54680930  0.48937740  0.49142561    -0.08300
C2046       C  0.58206124  0.02316089  0.48714987    -0.02800
C2047       C  0.60711238  0.51855035  0.47792234     0.04000
N2048       N  0.64544638  0.05489632  0.47759355     0.66500
H2049       H  0.62828090  0.48513747  0.47174311     0.15400
H2050       H  0.52332262  0.48977132  0.49607823     0.15100
N2051       N  0.51278812  0.42666414  0.49608873     0.74200
O2052       O  0.65970785  0.07812630  0.49456505    -0.39200
O2053       O  0.66253458  0.05641915  0.45775706    -0.39200
O2054       O  0.50213262  0.41989741  0.51896209    -0.39900
O2055       O  0.49119202  0.41342558  0.47811304    -0.39900
C2056       C  0.00531290  0.13613608  0.35210095    -0.12200
C2057       C  0.96924362  0.12258222  0.35186460     0.04800
C2058       C  0.94891112  0.10157235  0.37248798    -0.07500
C2059       C  0.96503006  0.09803968  0.39414254    -0.08300
C2060       C  0.00129900  0.11460376  0.39546696    -0.02800
C2061       C  0.52866553  0.13970013  0.37456083     0.04000
N2062       N  0.56522168  0.16159265  0.37858237     0.66500
H2063       H  0.53070172  0.16359110  0.33853697     0.15400
H2064       H  0.94918020  0.08302198  0.41026463     0.15100
N2065       N  0.91200886  0.08658183  0.37269438     0.74200
O2066       O  0.58643367  0.15680352  0.36568369    -0.39200
O2067       O  0.57634877  0.18842343  0.39242998    -0.39200
O2068       O  0.89281920  0.05597049  0.36445475    -0.39900
O2069       O  0.89860083  0.10118237  0.38513872    -0.39900
C2070       C  0.94165396  0.20682629  0.38663912    -0.12200
C2071       C  0.95162011  0.21785178  0.36119475     0.04800
C2072       C  0.97319778  0.25375275  0.35633842    -0.05100
C2073       C  0.48968229  0.27647572  0.37550759    -0.08300
C2074       C  0.98212116  0.26472959  0.40230675    -0.02800
C2075       C  0.95781417  0.22939774  0.40717473     0.04000
N2076       N  0.95031226  0.21550977  0.43264860     0.66500
H2077       H  0.92445173  0.17937736  0.39071046     0.15400
H2078       H  0.50749846  0.30395127  0.37199042     0.15100
N2079       N  0.48802915  0.26664261  0.32938137     0.74200
O2080       O  0.91904994  0.19685654  0.43979746    -0.39200
O2081       O  0.97367087  0.21435972  0.44521289    -0.39200
O2082       O  0.96834322  0.28146568  0.32054376    -0.39900
O2083       O  0.51231521  0.26416798  0.31904597    -0.39900
C2084       C  0.94060185  0.13992777  0.25869620    -0.12200
C2085       C  0.94282547  0.16763528  0.27335332     0.04800
C2086       C  0.94115094  0.19445123  0.26021501    -0.07500
C2087       C  0.93786951  0.19322160  0.23348498    -0.08300
C2088       C  0.93589889  0.16570650  0.21892895    -0.02800
C2089       C  0.93739560  0.13882510  0.23191618     0.04000
N2090       N  0.44144475  0.11345519  0.21539208     0.66500
H2091       H  0.44704337  0.12075127  0.26516509     0.15400
H2092       H  0.93675717  0.21419102  0.22406515     0.15100
N2093       N  0.94333449  0.22363851  0.27338762     0.74200
O2094       O  0.46966349  0.11939750  0.20520403    -0.39200
O2095       O  0.41621731  0.08255358  0.21676474    -0.39200
O2096       O  0.96919089  0.25361900  0.26931556    -0.39900
O2097       O  0.91631277  0.22075564  0.28365142    -0.39900
C2098       C  0.78466834  0.45533108  0.37050191    -0.12200
C2099       C  0.76938007  0.43236075  0.34989100     0.04800
C2100       C  0.76890816  0.40061537  0.34960716    -0.07500
C2101       C  0.78013257  0.39075679  0.37119747    -0.08300
C2102       C  0.79092146  0.41172674  0.39331700    -0.02800
C2103       C  0.79509277  0.44525639  0.39233285     0.04000
N2104       N  0.80935651  0.46930358  0.41320891     0.66500
H2105       H  0.78525822  0.47992592  0.37071913     0.15400
H2106       H  0.77763811  0.36529206  0.37142008     0.15100
N2107       N  0.75317589  0.37631525  0.32905610     0.74200
O2108       O  0.83580097  0.49893203  0.40922641    -0.39200
O2109       O  0.79088953  0.46488925  0.43284345    -0.39200
O2110       O  0.77139376  0.36798298  0.31557461    -0.39900
O2111       O  0.72047625  0.35893894  0.32720882    -0.39900
C2112       C  0.67243288  0.45062079  0.37606660    -0.12200
C2113       C  0.66317570  0.43241056  0.35272431     0.04800
C2114       C  0.62941425  0.40350772  0.34996160    -0.07500
C2115       C  0.60702285  0.39110765  0.37128472    -0.08300
C2116       C  0.61802602  0.40687342  0.39552578    -0.02800
C2117       C  0.65048597  0.43801080  0.39743962     0.04000
N2118       N  0.66234699  0.45633037  0.42116017     0.66500
H2119       H  0.69832790  0.47306275  0.37839933     0.15400
H2120       H  0.58189421  0.36756342  0.36921089     0.15100
N2121       N  0.61904656  0.38404323  0.32663696     0.74200
O2122       O  0.68335967  0.45234132  0.43460689    -0.39200
O2123       O  0.65712394  0.48098433  0.42616462    -0.39200
O2124       O  0.62571751  0.36009255  0.32286295    -0.39900
O2125       O  0.59932739  0.38762422  0.31144628    -0.39900
C2126       C  0.70597083  0.45894938  0.25600834    -0.12200
C2127       C  0.71891961  0.43987316  0.26801373     0.04800
C2128       C  0.73511037  0.42579785  0.25282884    -0.07500
C2129       C  0.73877878  0.43163865  0.22639849    -0.08300
C2130       C  0.72606943  0.45090198  0.21427972    -0.02800
C2131       C  0.70943182  0.46463613  0.22948356     0.04000
N2132       N  0.69646657  0.48499200  0.21848508     0.66500
H2133       H  0.69384928  0.47034400  0.26734947     0.15400
H2134       H  0.75079597  0.41999834  0.21522182     0.15100
N2135       N  0.74642577  0.40398035  0.26372242     0.74200
O2136       O  0.66441528  0.47118485  0.21397673    -0.39200
O2137       O  0.71601665  0.51759424  0.21672888    -0.39200
O2138       O  0.72427084  0.37298419  0.26965295    -0.39900
O2139       O  0.77834761  0.41373324  0.26363859    -0.39900
C2140       C  0.78199970  0.31618687  0.56168641    -0.12200
C2141       C  0.77262722  0.33742481  0.54821392     0.04800
C2142       C  0.76385357  0.35898949  0.56246800    -0.07500
C2143       C  0.76595360  0.35992701  0.58916038    -0.08300
C2144       C  0.77661963  0.33980570  0.60247773    -0.02800
C2145       C  0.78394342  0.31713519  0.58853167     0.04000
N2146       N  0.79554054  0.29661479  0.60113682     0.66500
H2147       H  0.78874693  0.29930307  0.55135861     0.15400
H2148       H  0.75985191  0.37726396  0.59955798     0.15100
N2149       N  0.75374554  0.38101759  0.55027533     0.74200
O2150       O  0.77385779  0.26557796  0.60730618    -0.39200
O2151       O  0.82767502  0.30775346  0.60282506    -0.39200
O2152       O  0.72200495  0.37187721  0.54945621    -0.39900
O2153       O  0.77658298  0.41175985  0.54428803    -0.39900
C2154       C  0.60952596  0.02923547  0.90033762    -0.12200
C2155       C  0.59640921  0.99783162  0.88683003     0.04800
C2156       C  0.58759157  0.96716343  0.90046263    -0.07500
C2157       C  0.59292182  0.96860672  0.92699180    -0.08300
C2158       C  0.60672776  0.00019122  0.94057601    -0.02800
C2159       C  0.61519197  0.03080642  0.92681386     0.04000
N2160       N  0.59605366  0.54891969  0.93710786     0.66500
H2161       H  0.61741619  0.05317870  0.89003146     0.15400
H2162       H  0.58545850  0.94462189  0.93707202     0.15100
N2163       N  0.57201685  0.93414418  0.88775801     0.74200
O2164       O  0.66433335  0.07820031  0.94397073    -0.39200
O2165       O  0.56706746  0.54260876  0.94601283    -0.39200
O2166       O  0.58648198  0.91617881  0.88835819    -0.39900
O2167       O  0.54197889  0.92124321  0.87842017    -0.39900
C2168       C  0.76148661  0.16922365  0.83629973    -0.12200
C2169       C  0.76201298  0.19689784  0.82332424     0.04800
C2170       C  0.73038241  0.19217055  0.81405002    -0.07500
C2171       C  0.69987508  0.15918536  0.81559271    -0.08300
C2172       C  0.70082756  0.13021616  0.82486217    -0.02800
C2173       C  0.73148835  0.13583845  0.83667589     0.04000
N2174       N  0.73326904  0.10746835  0.84753244     0.66500
H2175       H  0.78533361  0.17275195  0.84403703     0.15400
H2176       H  0.67610250  0.15554217  0.80744081     0.15100
N2177       N  0.72953599  0.21976347  0.80100724     0.74200
O2178       O  0.73371291  0.08494230  0.83310036    -0.39200
O2179       O  0.73960806  0.10777380  0.87104815    -0.39200
O2180       O  0.73598674  0.22405807  0.77730400    -0.39900
O2181       O  0.71839776  0.23714724  0.81247498    -0.39900
C2182       C  0.90851771  0.28307509  0.89796247    -0.12200
C2183       C  0.88932353  0.29558198  0.88540774     0.04800
C2184       C  0.86836300  0.30428444  0.90048561    -0.07500
C2185       C  0.86609891  0.29924733  0.92706681    -0.08300
C2186       C  0.88453059  0.28584356  0.93955978    -0.02800
C2187       C  0.90631517  0.27810257  0.92458832     0.04000
N2188       N  0.92539316  0.26384989  0.93579997     0.66500
H2189       H  0.92481278  0.27615186  0.88699178     0.15400
H2190       H  0.84964229  0.30601529  0.93797619     0.15100
N2191       N  0.84870342  0.31783584  0.88920826     0.74200
O2192       O  0.91002903  0.23192624  0.94147812    -0.39200
O2193       O  0.95815070  0.28182394  0.93665924    -0.39200
O2194       O  0.81627641  0.29841243  0.88657098    -0.39900
O2195       O  0.86275526  0.35017230  0.88544430    -0.39900
C2196       C  0.80056161  0.28580513  0.68709277    -0.12200
C2197       C  0.78148095  0.30222949  0.69185016     0.04800
C2198       C  0.77296914  0.30557918  0.71748527    -0.07500
C2199       C  0.78733430  0.29689242  0.73767017    -0.08300
C2200       C  0.80944563  0.28376726  0.73309486    -0.02800
C2201       C  0.81421416  0.27611619  0.70743035     0.04000
N2202       N  0.83409427  0.26002822  0.70152807     0.66500
H2203       H  0.80743085  0.28315908  0.66759314     0.15400
H2204       H  0.78202623  0.30170976  0.75707334     0.15100
N2205       N  0.75259846  0.32122742  0.72331283     0.74200
O2206       O  0.82024695  0.22746824  0.70381833    -0.39200
O2207       O  0.86304499  0.27718869  0.69018112    -0.39200
O2208       O  0.72048729  0.30495201  0.71854215    -0.39900
O2209       O  0.76575504  0.34938274  0.73581011    -0.39900
C2210       C  0.86958328  0.12629244  0.82002290    -0.12200
C2211       C  0.89920646  0.12709554  0.81016438     0.04800
C2212       C  0.92913880  0.15966381  0.80471603    -0.07500
C2213       C  0.92759076  0.19025410  0.80672266    -0.08300
C2214       C  0.89663573  0.18889538  0.81423399    -0.02800
C2215       C  0.86828925  0.15677891  0.82257344     0.04000
N2216       N  0.83767486  0.15462242  0.83318927     0.66500
H2217       H  0.84687459  0.10160472  0.82523034     0.15400
H2218       H  0.94975729  0.21464763  0.80038453     0.15100
N2219       N  0.95998900  0.16183260  0.79457355     0.74200
O2220       O  0.80807247  0.13170354  0.82529547    -0.39200
O2221       O  0.84011387  0.17333481  0.85218632    -0.39200
O2222       O  0.96222245  0.15717380  0.77094341    -0.39900
O2223       O  0.98664143  0.17334391  0.80838635    -0.39900
C2224       C  0.71275982  0.46634251  0.78967936    -0.12200
C2225       C  0.70385195  0.98554351  0.81244936     0.04800
C2226       C  0.72837135  0.99622135  0.83234434    -0.07500
C2227       C  0.75975490  0.99630012  0.82828662    -0.08300
C2228       C  0.76677276  0.98566387  0.80465256    -0.02800
C2229       C  0.74473345  0.46808436  0.78647230     0.04000
N2230       N  0.75177020  0.45604184  0.76295757     0.66500
H2231       H  0.69463929  0.45733490  0.77389335     0.15400
H2232       H  0.77913067  0.00580239  0.84323059     0.15100
N2233       N  0.72152059  0.00672584  0.85660711     0.74200
O2234       O  0.76032262  0.43312051  0.76337823    -0.39200
O2235       O  0.74527249  0.46496142  0.74180865    -0.39200
O2236       O  0.69312202  0.98732082  0.86814014    -0.39900
O2237       O  0.74474496  0.03393600  0.86748561    -0.39900
C2238       C  0.85863536  0.48422196  0.91660931    -0.12200
C2239       C  0.88705113  0.01276200  0.93252701     0.04800
C2240       C  0.91674060  0.03782322  0.91868486    -0.07500
C2241       C  0.91748154  0.03633961  0.89192337    -0.08300
C2242       C  0.88950069  0.01000730  0.87818826    -0.02800
C2243       C  0.86144159  0.48324840  0.88989468     0.04000
N2244       N  0.83240814  0.45722556  0.87584744     0.66500
H2245       H  0.83466943  0.46482739  0.92573568     0.15400
H2246       H  0.94026604  0.05615356  0.88180955     0.15100
N2247       N  0.94642504  0.06523993  0.93128037     0.74200
O2248       O  0.82885612  0.42754312  0.87261945    -0.39200
O2249       O  0.80768989  0.46195781  0.87040371    -0.39200
O2250       O  0.97214963  0.06177690  0.93590781    -0.39900
O2251       O  0.94924416  0.09469224  0.93391968    -0.39900
C2252       C  0.81276376  0.45824972  0.70520379    -0.12200
C2253       C  0.84178164  0.46301153  0.71873988     0.04800
C2254       C  0.86214360  0.44986729  0.70897045    -0.07500
C2255       C  0.85138285  0.42932088  0.68701582    -0.08300
C2256       C  0.81954689  0.42017969  0.67560133    -0.02800
C2257       C  0.80105699  0.43624413  0.68382990     0.04000
N2258       N  0.76834829  0.42708051  0.67277391     0.66500
H2259       H  0.79772042  0.46935610  0.71240272     0.15400
H2260       H  0.86544052  0.41657089  0.68098555     0.15100
N2261       N  0.89171953  0.45423030  0.72257061     0.74200
O2262       O  0.74135687  0.39897746  0.67912806    -0.39200
O2263       O  0.76552044  0.44934643  0.65993546    -0.39200
O2264       O  0.88886731  0.42974573  0.73631954    -0.39900
O2265       O  0.92152462  0.47979950  0.71757209    -0.39900
C2266       C  0.47018403  0.32769462  0.69318939    -0.12200
C2267       C  0.98338540  0.30577072  0.68531564     0.04800
C2268       C  0.97255546  0.27428686  0.69827504    -0.07500
C2269       C  0.95155105  0.26616770  0.72024627    -0.08300
C2270       C  0.94224094  0.28973836  0.72993618    -0.02800
C2271       C  0.95112385  0.32008837  0.71596502     0.04000
N2272       N  0.94158867  0.34445061  0.72493089     0.66500
H2273       H  0.47984638  0.35258619  0.68376298     0.15400
H2274       H  0.94450394  0.24254874  0.73071839     0.15100
N2275       N  0.98580227  0.25232748  0.69095607     0.74200
O2276       O  0.46385111  0.37004595  0.74043478    -0.39200
O2277       O  0.91721597  0.34592235  0.71419686    -0.39200
O2278       O  0.00977498  0.25265507  0.70373442    -0.39900
O2279       O  0.97107474  0.23001011  0.67346707    -0.39900
C2280       C  0.61230375  0.44721049  0.70923482    -0.12200
C2281       C  0.61340295  0.43394450  0.73324377     0.04800
C2282       C  0.61189816  0.40183059  0.73479197    -0.07500
C2283       C  0.60542520  0.38165056  0.71272509    -0.08300
C2284       C  0.59925564  0.39262128  0.68922368    -0.02800
C2285       C  0.60504133  0.42665857  0.68716498     0.04000
N2286       N  0.59901172  0.43880673  0.66362591     0.66500
H2287       H  0.61478214  0.47260675  0.70787304     0.15400
H2288       H  0.60076130  0.35541966  0.71460285     0.15100
N2289       N  0.61437303  0.38833155  0.75890135     0.74200
O2290       O  0.56879274  0.43233484  0.65835965    -0.39200
O2291       O  0.62453081  0.46065838  0.65034342    -0.39200
O2292       O  0.58730253  0.37041504  0.77223409    -0.39900
O2293       O  0.64223321  0.38950703  0.76484937    -0.39900
C2294       C  0.52084075  0.31622077  0.59068510    -0.12200
C2295       C  0.55141746  0.33691072  0.60464612     0.04800
C2296       C  0.58337617  0.35458882  0.59098349    -0.07500
C2297       C  0.58388425  0.35192497  0.56417742    -0.08300
C2298       C  0.55312623  0.33178149  0.55025771    -0.02800
C2299       C  0.52132808  0.31344301  0.56402330     0.04000
N2300       N  0.48895461  0.29217042  0.55133499     0.66500
H2301       H  0.49591473  0.30213561  0.60041420     0.15400
H2302       H  0.60864585  0.36604919  0.55422308     0.15100
N2303       N  0.61568523  0.37524327  0.60385929     0.74200
O2304       O  0.47803262  0.26025194  0.54772402    -0.39200
O2305       O  0.46904422  0.30390807  0.54729428    -0.39200
O2306       O  0.63447201  0.36242302  0.60865635    -0.39900
O2307       O  0.62812061  0.40761707  0.60625707    -0.39900
C2308       C  0.62397709  0.13124165  0.71316238    -0.12200
C2309       C  0.60838533  0.11173781  0.69099669     0.04800
C2310       C  0.60123846  0.07716308  0.68949964    -0.07500
C2311       C  0.60714992  0.06194223  0.71086895    -0.08300
C2312       C  0.61985581  0.08071779  0.73382917    -0.02800
C2313       C  0.62977202  0.11608459  0.73441078     0.04000
N2314       N  0.64676311  0.13718270  0.75620367     0.66500
H2315       H  0.62963222  0.15788363  0.71456372     0.15400
H2316       H  0.59985386  0.03480267  0.71000411     0.15100
N2317       N  0.58444378  0.05611659  0.66758159     0.74200
O2318       O  0.67830468  0.14704231  0.75990000    -0.39200
O2319       O  0.63265073  0.15104571  0.76870705    -0.39200
O2320       O  0.60230144  0.05231638  0.65042359    -0.39900
O2321       O  0.55169229  0.03783564  0.66697946    -0.39900
C2322       C  0.98096359  0.10623942  0.68654951    -0.12200
C2323       C  0.51392569  0.13098514  0.69113826     0.04800
C2324       C  0.52050115  0.14243721  0.71687428    -0.07500
C2325       C  0.99811964  0.11775849  0.73851613    -0.08300
C2326       C  0.96404987  0.09380749  0.73143420    -0.02800
C2327       C  0.95480738  0.09015181  0.70533191     0.04000
N2328       N  0.91947818  0.06828044  0.69763781     0.66500
H2329       H  0.97436519  0.09981033  0.66657198     0.15400
H2330       H  0.00495481  0.12225134  0.75860555     0.15100
N2331       N  0.55360062  0.17110980  0.72424168     0.74200
O2332       O  0.91072108  0.04080180  0.68510308    -0.39200
O2333       O  0.89857459  0.07929721  0.69963339    -0.39200
O2334       O  0.56155289  0.20171542  0.71843603    -0.39900
O2335       O  0.57248261  0.16643969  0.73958160    -0.39900
C2336       C  0.59875508  0.13996725  0.56647120    -0.12200
C2337       C  0.56935660  0.13465494  0.55300598     0.04800
C2338       C  0.54013925  0.12981960  0.56713615    -0.07500
C2339       C  0.54050398  0.12947815  0.59404548    -0.08300
C2340       C  0.56972079  0.13412873  0.60755310    -0.02800
C2341       C  0.59939097  0.14020347  0.59330960     0.04000
N2342       N  0.63092513  0.14794607  0.60568756     0.66500
H2343       H  0.62178250  0.14446515  0.55607035     0.15400
H2344       H  0.51736273  0.12476301  0.60436697     0.15100
N2345       N  0.00353063  0.10739787  0.55500607     0.74200
O2346       O  0.64023678  0.12560082  0.60581187    -0.39200
O2347       O  0.65193101  0.17871478  0.61285468    -0.39200
O2348       O  0.98744467  0.07602350  0.54776153    -0.39900
O2349       O  0.50386597  0.14822039  0.55083612    -0.39900
C2350       C  0.56561154  0.61927565  0.63536565     0.80300
N2351       N  0.54423716  0.62629388  0.64993408    -0.78000
C2352       C  0.54682337  0.62755879  0.67595040     0.82700
N2353       N  0.56986044  0.62090953  0.68699770    -0.78000
C2354       C  0.59032822  0.61298010  0.67318511     0.82800
N2355       N  0.58813180  0.61182586  0.64728639    -0.79700
C2356       C  0.54829488  0.85441967  0.63148356     0.80300
N2357       N  0.57548017  0.87992360  0.64512886    -0.78000
C2358       C  0.57057373  0.88560506  0.66999098     0.82700
N2359       N  0.53903137  0.86667896  0.68083907    -0.78000
C2360       C  0.51195616  0.84174613  0.66781813     0.82800
N2361       N  0.51641532  0.83517227  0.64311844    -0.79700
C2362       C  0.94089391  0.95670129  0.79665802     0.03200
C2363       C  0.92145039  0.91984913  0.79689594    -0.13000
C2364       C  0.93774048  0.90016129  0.79977972     0.00700
C2365       C  0.97458267  0.91808440  0.80144990    -0.11500
C2366       C  0.99514812  0.95489060  0.80025265     0.03200
C2367       C  0.97771248  0.97383364  0.79805131    -0.10900
H2368       H  0.89332399  0.90641397  0.79616765     0.08800
H2369       H  0.98738673  0.90319390  0.80363821     0.06300
H2370       H  0.99278185  0.00203170  0.79790900     0.06100
O2371       O  0.82088498  0.51188950  0.78068962    -0.85300
O2372       O  0.87498921  0.57446019  0.79990369    -0.82400
C2373       C  0.90502853  0.59839680  0.80603851     0.98200
O2374       O  0.93053827  0.59346295  0.80442825    -0.82400
O2375       O  0.91476977  0.54036447  0.83876720    -0.85000
C2376       C  0.89507776  0.51103042  0.84899571     1.02700
O2377       O  0.87833057  0.48380308  0.83550926    -0.77800
O2378       O  0.81867795  0.98397938  0.81375390    -0.78000
C2379       C  0.80655510  0.49308052  0.80003858     1.02600
O2380       O  0.86425127  0.00498068  0.74183467    -0.85300
O2381       O  0.91661533  0.57843537  0.75623250    -0.82400
C2382       C  0.94313831  0.57592504  0.75236389     0.98200
O2383       O  0.95055125  0.55874047  0.76754076    -0.82400
O2384       O  0.94260509  0.50991416  0.80455684    -0.85000
C2385       C  0.92224758  0.97682673  0.79682165     1.02600
O2386       O  0.89067402  0.96187232  0.79019288    -0.77800
O2387       O  0.83412766  0.95876066  0.76625940    -0.78000
C2388       C  0.84466174  0.97260048  0.74432686     1.02600
Cr2389     Cr  0.87115604  0.54301172  0.77175437     1.93700
Cr2390     Cr  0.93124830  0.54845426  0.80290891     1.93200
Cr2391     Cr  0.85625676  0.97544820  0.80096393     1.39100
O2392       O  0.88815146  0.52275307  0.79130263    -1.23100
O2393       O  0.87160897  0.71522925  0.80329589    -0.85300
O2394       O  0.81377630  0.71700514  0.78974530    -0.82400
C2395       C  0.80045600  0.71985978  0.81026325     0.98200
O2396       O  0.81467609  0.74826107  0.82255852    -0.82400
O2397       O  0.87176575  0.80554875  0.84363512    -0.85000
C2398       C  0.88893853  0.79461745  0.85571154     1.02700
O2399       O  0.90819678  0.78586115  0.84388047    -0.77800
O2400       O  0.92653588  0.75512994  0.80508665    -0.78000
C2401       C  0.90246177  0.72382339  0.80804587     1.02600
O2402       O  0.90775319  0.75785635  0.75898954    -0.85300
O2403       O  0.85162163  0.76390220  0.74988954    -0.82400
C2404       C  0.83105828  0.77503720  0.75263803     0.98200
O2405       O  0.82608839  0.78440582  0.77457602    -0.82400
O2406       O  0.88550413  0.84298481  0.79508003    -0.85000
C2407       C  0.91675330  0.86110624  0.80257522     1.02600
O2408       O  0.93071932  0.84610117  0.81325801    -0.77800
O2409       O  0.93772567  0.81190770  0.77177093    -0.78000
C2410       C  0.92897454  0.78952168  0.75416646     1.02600
Cr2411     Cr  0.86251598  0.74132807  0.77724476     1.93700
Cr2412     Cr  0.85167383  0.79432296  0.80810423     1.93200
Cr2413     Cr  0.92251219  0.79814266  0.80771561     1.39100
O2414       O  0.87849649  0.77793187  0.79783550    -1.23100
O2415       O  0.68124531  0.57320585  0.79028470    -0.85300
O2416       O  0.68363600  0.51597803  0.80681232    -0.82400
C2417       C  0.67596705  0.48514792  0.81084592     0.98200
O2418       O  0.64412456  0.96878700  0.80929779    -0.82400
O2419       O  0.60568281  0.98015546  0.84616580    -0.85000
C2420       C  0.59815233  0.49319492  0.85591237     1.02700
O2421       O  0.59119935  0.51356019  0.84387006    -0.77800
O2422       O  0.65079415  0.57017687  0.82396169    -0.78000
C2423       C  0.67860839  0.58599146  0.81106135     1.02600
O2424       O  0.63619795  0.53224645  0.75069446    -0.85300
O2425       O  0.64702333  0.99135875  0.76308101    -0.82400
C2426       C  0.61741912  0.96626824  0.75736966     0.98200
O2427       O  0.59183200  0.95668825  0.77243080    -0.82400
O2428       O  0.54955254  0.95947401  0.81113536    -0.85000
C2429       C  0.53518716  0.97576151  0.80300977     1.02600
O2430       O  0.55686766  0.50309751  0.79515738    -0.77800
O2431       O  0.61696028  0.56003651  0.77457382    -0.78000
C2432       C  0.62520643  0.55303224  0.75282695     1.02600
Cr2433     Cr  0.65890225  0.52379195  0.77912979     1.93700
Cr2434     Cr  0.59929843  0.96996491  0.80919336     1.93200
Cr2435     Cr  0.60514067  0.53442191  0.80851578     1.39100
O2436       O  0.62079342  0.50675604  0.79833932    -1.23100
C2437       C  0.78097664  0.83724891  0.63025901     0.80300
N2438       N  0.77634394  0.81029987  0.64541808    -0.78000
C2439       C  0.77758915  0.81401237  0.67137994     0.82700
N2440       N  0.78476097  0.84470876  0.68169135    -0.78000
C2441       C  0.79048991  0.87171797  0.66694581     0.82800
N2442       N  0.78890990  0.86823847  0.64119331    -0.79700
C2443       C  0.73039421  0.95415980  0.29876226     0.80300
N2444       N  0.70276593  0.95200074  0.31204648    -0.78000
C2445       C  0.70272898  0.95207567  0.33809475     0.82700
N2446       N  0.72944700  0.95336785  0.35055949    -0.78000
C2447       C  0.75614350  0.95406032  0.33804771     0.82800
N2448       N  0.75655122  0.95400691  0.31203222    -0.79700
C2449       C  0.96005280  0.67829442  0.29747101     0.80300
N2450       N  0.96334311  0.70660461  0.31027573    -0.78000
C2451       C  0.96655276  0.70857216  0.33605898     0.82700
N2452       N  0.96693805  0.68284478  0.34885907    -0.78000
C2453       C  0.96418783  0.65485322  0.33684911     0.82800
N2454       N  0.96108949  0.65246302  0.31085713    -0.79700
C2455       C  0.61928266  0.78983133  0.46674665     0.03200
C2456       C  0.60109669  0.75286937  0.46810991    -0.13000
C2457       C  0.61885680  0.73409530  0.46837804     0.00700
C2458       C  0.65565888  0.75336721  0.46742660    -0.11500
C2459       C  0.67452487  0.79024958  0.46550280     0.03200
C2460       C  0.65590334  0.80794672  0.46487007    -0.10900
H2461       H  0.57297391  0.73866179  0.46943956     0.08800
H2462       H  0.66971906  0.73954524  0.46802723     0.06300
H2463       H  0.67010870  0.83614162  0.46407673     0.06100
O2464       O  0.00964414  0.86545027  0.46330218    -0.85300
O2465       O  0.56898078  0.91691288  0.45577093    -0.82400
C2466       C  0.58107686  0.92749563  0.47774853     0.98200
O2467       O  0.59136700  0.91087385  0.49085491    -0.82400
O2468       O  0.58911218  0.85293531  0.51086163    -0.85000
C2469       C  0.55965495  0.83595831  0.52196754     1.02700
O2470       O  0.53251895  0.81788089  0.50904752    -0.77800
O2471       O  0.98824285  0.80927662  0.46673336    -0.78000
C2472       C  0.98405276  0.83529620  0.46654356     1.02600
O2473       O  0.50919983  0.82455040  0.42454631    -0.85300
O2474       O  0.57538417  0.87638272  0.41658073    -0.82400
C2475       C  0.60734027  0.89652743  0.42008719     0.98200
O2476       O  0.62010139  0.90216459  0.44255809    -0.82400
O2477       O  0.61526605  0.84160719  0.46277335    -0.85000
C2478       C  0.60027477  0.80959092  0.46865339     1.02600
O2479       O  0.56927904  0.79425741  0.47703756    -0.77800
O2480       O  0.52720504  0.78952870  0.43664144    -0.78000
C2481       C  0.51280534  0.79880624  0.42039349     1.02600
Cr2482     Cr  0.54123506  0.86818398  0.44316227     1.93700
Cr2483     Cr  0.60088068  0.87492958  0.47576280     1.93200
Cr2484     Cr  0.53094713  0.80498835  0.47279837     1.39100
O2485       O  0.55811327  0.84929361  0.46380869    -1.23100
O2486       O  0.54436369  0.54537484  0.47008421    -0.85300
O2487       O  0.99387201  0.55685417  0.45265098    -0.82400
C2488       C  0.97952624  0.55886487  0.47286653     0.98200
O2489       O  0.99617382  0.58424260  0.48786047    -0.82400
O2490       O  0.54954620  0.63786819  0.51147854    -0.85000
C2491       C  0.56693970  0.62760308  0.52384659     1.02700
O2492       O  0.58629050  0.61901285  0.51222650    -0.77800
O2493       O  0.59983209  0.58155867  0.47695826    -0.78000
C2494       C  0.57358517  0.55078159  0.47731566     1.02600
O2495       O  0.58684171  0.58507833  0.42825953    -0.85300
O2496       O  0.53837907  0.60284520  0.41583815    -0.82400
C2497       C  0.51880557  0.61537255  0.41801734     0.98200
O2498       O  0.51082857  0.62183158  0.44006958    -0.82400
O2499       O  0.56735542  0.67727234  0.46418641    -0.85000
C2500       C  0.59910858  0.69466558  0.47032354     1.02600
O2501       O  0.61415423  0.67890108  0.47841858    -0.77800
O2502       O  0.62160034  0.63845462  0.44122655    -0.78000
C2503       C  0.61443232  0.61398204  0.42570681     1.02600
Cr2504     Cr  0.54184804  0.57521099  0.44358168     1.93700
Cr2505     Cr  0.53266828  0.62844949  0.47502061     1.93200
Cr2506     Cr  0.60205200  0.62834720  0.47635457     1.39100
O2507       O  0.55901927  0.61116797  0.46500004    -1.23100
O2508       O  0.85375979  0.91986788  0.45487019    -0.85300
O2509       O  0.86048196  0.86457300  0.46734740    -0.82400
C2510       C  0.85552057  0.83446512  0.46990883     0.98200
O2511       O  0.82503405  0.80829240  0.46813361    -0.82400
O2512       O  0.78839581  0.81896781  0.50675386    -0.85000
C2513       C  0.77669960  0.83524955  0.51920115     1.02700
O2514       O  0.76550111  0.85241766  0.50755239    -0.77800
O2515       O  0.82282812  0.91227037  0.48941020    -0.78000
C2516       C  0.85064726  0.92981482  0.47678131     1.02600
O2517       O  0.80901207  0.88034920  0.41457459    -0.85300
O2518       O  0.82293272  0.82856569  0.42224423    -0.82400
C2519       C  0.79298648  0.80369676  0.41701011     0.98200
O2520       O  0.76865555  0.79345470  0.43331192    -0.82400
O2521       O  0.72945022  0.79553082  0.47410468    -0.85000
C2522       C  0.71362490  0.81033484  0.46599515     1.02600
O2523       O  0.73084109  0.84212458  0.45943673    -0.77800
O2524       O  0.78814983  0.90427575  0.44068391    -0.78000
C2525       C  0.79700999  0.90007663  0.41827481     1.02600
Cr2526     Cr  0.83366822  0.87170845  0.44142896     1.93700
Cr2527     Cr  0.77911341  0.80730149  0.46996068     1.93200
Cr2528     Cr  0.77812417  0.87596151  0.47327351     1.39100
O2529       O  0.79655604  0.85165893  0.46152706    -1.23100
C2530       C  0.72351596  0.67923389  0.29884968     0.80300
N2531       N  0.74812108  0.71145281  0.30750628    -0.78000
C2532       C  0.75171590  0.71781385  0.33300844     0.82700
N2533       N  0.73092909  0.69258672  0.34938493    -0.78000
C2534       C  0.70614228  0.66082685  0.34146178     0.82800
N2535       N  0.70190450  0.65398140  0.31587358    -0.79700
C2536       C  0.88091048  0.51159649  0.95953581     0.80300
N2537       N  0.85323180  0.99129369  0.97306696    -0.78000
C2538       C  0.84980363  0.99382955  0.99874072     0.82700
N2539       N  0.87240342  0.51623176  0.01052367    -0.78000
C2540       C  0.90277758  0.53893094  0.99927633     0.82800
N2541       N  0.90688270  0.53712354  0.97377288    -0.79700
C2542       C  0.87982909  0.78030222  0.96653214     0.80300
N2543       N  0.85375330  0.78150716  0.97963315    -0.78000
C2544       C  0.85009589  0.77566382  0.00528595     0.82700
N2545       N  0.87123513  0.76738603  0.01735816    -0.78000
C2546       C  0.89582329  0.76429035  0.00472149     0.82800
N2547       N  0.90036562  0.77075335  0.97917034    -0.79700
C2548       C  0.77387568  0.61309706  0.13150381     0.03200
C2549       C  0.81067865  0.63084727  0.13213248    -0.13000
C2550       C  0.82895417  0.61258098  0.13214140     0.00700
C2551       C  0.80958949  0.57580478  0.13101416    -0.11500
C2552       C  0.77277675  0.55698699  0.13040457     0.03200
C2553       C  0.75531383  0.57606645  0.13060268    -0.10900
H2554       H  0.82514044  0.65902230  0.13327964     0.08800
H2555       H  0.82332183  0.56163857  0.13127102     0.06300
H2556       H  0.72714704  0.56203160  0.13065894     0.06100
O2557       O  0.51483385  0.72840118  0.13404604    -0.85300
O2558       O  0.50645801  0.66654947  0.11586811    -0.82400
C2559       C  0.50521868  0.65102924  0.13618965     0.98200
O2560       O  0.47974106  0.64126993  0.15133855    -0.82400
O2561       O  0.92420306  0.63996795  0.17526306    -0.85000
C2562       C  0.93573021  0.66829309  0.18760743     1.02700
O2563       O  0.94443196  0.69636765  0.17605569    -0.77800
O2564       O  0.47843718  0.74685992  0.14059594    -0.78000
C2565       C  0.50893514  0.75167872  0.14189902     1.02600
O2566       O  0.97567438  0.72882949  0.09183619    -0.85300
O2567       O  0.95842816  0.66230662  0.07999351    -0.82400
C2568       C  0.94597527  0.63001955  0.08209391     0.98200
O2569       O  0.94021929  0.61561731  0.10400208    -0.82400
O2570       O  0.88504334  0.61725063  0.12783147    -0.85000
C2571       C  0.86806988  0.63173315  0.13445982     1.02600
O2572       O  0.88401782  0.66231499  0.14364518    -0.77800
O2573       O  0.92237591  0.70733768  0.10514825    -0.78000
C2574       C  0.94527635  0.72259431  0.08804735     1.02600
Cr2575     Cr  0.48573042  0.69546940  0.10749487     1.93700
Cr2576     Cr  0.93354394  0.63168601  0.13883961     1.93200
Cr2577     Cr  0.93404266  0.70125994  0.14037144     1.39100
O2578       O  0.95101244  0.67544251  0.12890731    -1.23100
O2579       O  0.70758710  0.86982252  0.13724713    -0.85300
O2580       O  0.64993288  0.87246187  0.12339888    -0.82400
C2581       C  0.63739793  0.87711506  0.14367954     0.98200
O2582       O  0.65310633  0.90569118  0.15546491    -0.82400
O2583       O  0.71042666  0.96354320  0.17479250    -0.85000
C2584       C  0.72881589  0.95422742  0.18699016     1.02700
O2585       O  0.74763894  0.94494008  0.17519494    -0.77800
O2586       O  0.76277160  0.90908027  0.13887415    -0.78000
C2587       C  0.73825176  0.87797841  0.14259976     1.02600
O2588       O  0.74285356  0.90825649  0.09164050    -0.85300
O2589       O  0.68774174  0.91675233  0.08201214    -0.82400
C2590       C  0.66787495  0.92886330  0.08451704     0.98200
O2591       O  0.66308283  0.93890436  0.10625732    -0.82400
O2592       O  0.72189026  0.99846921  0.12583191    -0.85000
C2593       C  0.75329972  0.01709927  0.13258436     1.02600
O2594       O  0.76910972  0.00247169  0.14113148    -0.77800
O2595       O  0.77440031  0.96316739  0.10184596    -0.78000
C2596       C  0.76554687  0.93896300  0.08565398     1.02600
Cr2597     Cr  0.69848661  0.89494340  0.11028024     1.93700
Cr2598     Cr  0.68939327  0.95034629  0.13962292     1.93200
Cr2599     Cr  0.76013932  0.95339426  0.13846477     1.39100
O2600       O  0.71578514  0.93308840  0.12953645    -1.23100
O2601       O  0.65697438  0.68208850  0.14114563    -0.85300
O2602       O  0.71904728  0.73948404  0.12728890    -0.82400
C2603       C  0.73781133  0.75204581  0.14679757     0.98200
O2604       O  0.75036886  0.73585492  0.15779756    -0.82400
O2605       O  0.74738543  0.67644967  0.17610268    -0.85000
C2606       C  0.71944005  0.65967897  0.18908534     1.02700
O2607       O  0.69042112  0.64200944  0.17805000    -0.77800
O2608       O  0.63943443  0.62676674  0.14148372    -0.78000
C2609       C  0.63305507  0.65115786  0.14467286     1.02600
O2610       O  0.65977602  0.64698826  0.09471277    -0.85300
O2611       O  0.72419647  0.70245110  0.08489528    -0.82400
C2612       C  0.75666048  0.72172581  0.08677606     0.98200
O2613       O  0.77181649  0.72530284  0.10801956    -0.82400
O2614       O  0.76848954  0.66424621  0.12632784    -0.85000
C2615       C  0.75476511  0.63291400  0.13373861     1.02600
O2616       O  0.72487062  0.61836062  0.14406631    -0.77800
O2617       O  0.68128430  0.61435011  0.10530873    -0.78000
C2618       C  0.66656289  0.62345815  0.08920073     1.02600
Cr2619     Cr  0.69155397  0.69123477  0.11368884     1.93700
Cr2620     Cr  0.75595322  0.69831057  0.14122070     1.93200
Cr2621     Cr  0.68593221  0.62876417  0.14157277     1.39100
O2622       O  0.71156774  0.67308592  0.13218101    -1.23100
C2623       C  0.61179275  0.50203731  0.96662640     0.80300
N2624       N  0.61318102  0.97395537  0.98037450    -0.78000
C2625       C  0.61454176  0.97277979  0.00633711     0.82700
N2626       N  0.62820245  0.51038347  0.01692717    -0.78000
C2627       C  0.63029690  0.53710607  0.00368646     0.82800
N2628       N  0.62202063  0.53311526  0.97851535    -0.79700
C2629       C  0.68406157  0.60340827  0.05106530    -0.12200
C2630       C  0.65850911  0.60739578  0.06363136     0.04800
C2631       C  0.62618190  0.59552283  0.05167783    -0.07500
C2632       C  0.61875785  0.57672560  0.02870309    -0.08300
C2633       C  0.64326556  0.56990235  0.01753625    -0.02800
C2634       C  0.67682688  0.58518633  0.02801205     0.04000
N2635       N  0.70248754  0.57893266  0.01686304     0.66500
H2636       H  0.70941002  0.61343188  0.05965815     0.15400
H2637       H  0.59253379  0.56408666  0.02125476     0.15100
N2638       N  0.59906790  0.59803097  0.06424623     0.74200
O2639       O  0.71988834  0.59647650  0.99771493    -0.39200
O2640       O  0.71072783  0.55916059  0.02795618    -0.39200
O2641       O  0.59063801  0.61917891  0.05595606    -0.39900
O2642       O  0.57864538  0.57394492  0.07917697    -0.39900
C2643       C  0.71742892  0.82087631  0.16374743    -0.12200
C2644       C  0.74461798  0.84977808  0.15118493     0.04800
C2645       C  0.77470305  0.84844875  0.14453780    -0.07500
C2646       C  0.77441795  0.81680000  0.14701676    -0.08300
C2647       C  0.74453980  0.78646777  0.15573825    -0.02800
C2648       C  0.71677875  0.78930346  0.16567735     0.04000
N2649       N  0.68646478  0.75947522  0.17584787     0.66500
H2650       H  0.69570871  0.82236165  0.17105238     0.15400
H2651       H  0.79625751  0.81508541  0.13977067     0.15100
N2652       N  0.80453287  0.87779502  0.13341865     0.74200
O2653       O  0.68725802  0.74852804  0.19789627    -0.39200
O2654       O  0.65793727  0.74665161  0.16417271    -0.39200
O2655       O  0.83384396  0.88998878  0.14383517    -0.39900
O2656       O  0.80270111  0.88805047  0.11137222    -0.39900
C2657       C  0.66702502  0.94045907  0.03784804    -0.12200
C2658       C  0.64974773  0.93110831  0.06169798     0.04800
C2659       C  0.61600425  0.92597698  0.06366945    -0.07500
C2660       C  0.60211297  0.93454941  0.04307926    -0.08300
C2661       C  0.62139381  0.94853081  0.02043514    -0.02800
C2662       C  0.65319559  0.94948126  0.01724625     0.04000
N2663       N  0.67373035  0.96370678  0.99455579     0.66500
H2664       H  0.69268189  0.94372617  0.03585613     0.15400
H2665       H  0.57742882  0.93336024  0.04565670     0.15100
N2666       N  0.59595099  0.91301466  0.08670312     0.74200
O2667       O  0.69059805  0.99624814  0.99116184    -0.39200
O2668       O  0.67862869  0.94424263  0.97964420    -0.39200
O2669       O  0.58841841  0.93221580  0.09971496    -0.39900
O2670       O  0.58170463  0.88105364  0.09199985    -0.39900
C2671       C  0.57680925  0.63078578  0.12436046    -0.12200
C2672       C  0.59672229  0.64359556  0.14650503     0.04800
C2673       C  0.58403710  0.65493293  0.16702848    -0.07500
C2674       C  0.55264007  0.65505805  0.16414330    -0.08300
C2675       C  0.53403094  0.64437734  0.14106357    -0.02800
C2676       C  0.54610455  0.63136867  0.12126887     0.04000
N2677       N  0.52824029  0.61976909  0.09740577     0.66500
H2678       H  0.58671381  0.62285013  0.10842037     0.15400
H2679       H  0.54351356  0.66485279  0.17951897     0.15100
N2680       N  0.60264360  0.66627393  0.19068649     0.74200
O2681       O  0.53377686  0.64184618  0.08025070    -0.39200
O2682       O  0.51495342  0.58816008  0.09118735    -0.39200
O2683       O  0.60340717  0.69092453  0.20321919    -0.39900
O2684       O  0.61492738  0.64911456  0.20055032    -0.39900
C2685       C  0.56904766  0.78525911  0.15749384    -0.12200
C2686       C  0.53900491  0.78530980  0.15030166     0.04800
C2687       C  0.54062828  0.81766747  0.14780083    -0.07500
C2688       C  0.57309153  0.84885700  0.14900270    -0.08300
C2689       C  0.60370798  0.84799572  0.15270374    -0.02800
C2690       C  0.60106654  0.81605160  0.15848010     0.04000
N2691       N  0.63124134  0.81405003  0.16330048     0.66500
H2692       H  0.56826413  0.76086260  0.16057565     0.15400
H2693       H  0.57468685  0.87334068  0.14467494     0.15100
N2694       N  0.51037850  0.81928543  0.14182150     0.74200
O2695       O  0.64169323  0.81721722  0.18605015    -0.39200
O2696       O  0.64087941  0.79990595  0.14677683    -0.39200
O2697       O  0.49685464  0.82919270  0.15865572    -0.39900
O2698       O  0.50013342  0.81553994  0.11897939    -0.39900
C2699       C  0.76677449  0.72434164  0.03956906    -0.12200
C2700       C  0.77700750  0.74045810  0.06369567     0.04800
C2701       C  0.80665811  0.77411875  0.06521592    -0.07500
C2702       C  0.82764694  0.78902480  0.04354802    -0.08300
C2703       C  0.82007704  0.77065501  0.02035970    -0.02800
C2704       C  0.78821599  0.73904855  0.01796097     0.04000
N2705       N  0.77960069  0.71937725  0.99470643     0.66500
H2706       H  0.74350181  0.69889814  0.03786459     0.15400
H2707       H  0.85211434  0.81334361  0.04564007     0.15100
N2708       N  0.81626709  0.79328750  0.08867210     0.74200
O2709       O  0.79386885  0.70195522  0.98926532    -0.39200
O2710       O  0.75430703  0.71541719  0.98155896    -0.39200
O2711       O  0.83686566  0.79071135  0.10359854    -0.39900
O2712       O  0.81112752  0.81842435  0.09131809    -0.39900
C2713       C  0.90142778  0.71047011  0.05540810    -0.12200
C2714       C  0.93579662  0.73150802  0.06344213     0.04800
C2715       C  0.95942067  0.75978212  0.04785112    -0.07500
C2716       C  0.94714472  0.76848706  0.02608747    -0.08300
C2717       C  0.91212069  0.74837522  0.01914918    -0.02800
C2718       C  0.88975910  0.71792622  0.03314016     0.04000
N2719       N  0.85403928  0.69607205  0.02612516     0.66500
H2720       H  0.88323793  0.68799338  0.06660895     0.15400
H2721       H  0.96431677  0.79225271  0.01574627     0.15100
N2722       N  0.99507296  0.78139794  0.05484731     0.74200
O2723       O  0.84646435  0.68080652  0.00471520    -0.39200
O2724       O  0.83011952  0.68996185  0.04201097    -0.39200
O2725       O  0.51596710  0.77675768  0.05556908    -0.39900
O2726       O  0.50195089  0.81631086  0.06197862    -0.39900
C2727       C  0.81248698  0.94107678  0.02370853    -0.12200
C2728       C  0.81757756  0.97204213  0.01308493     0.04800
C2729       C  0.80065653  0.98831022  0.02415864    -0.07500
C2730       C  0.78275002  0.97606788  0.04733144    -0.08300
C2731       C  0.78035777  0.94696608  0.05943120    -0.02800
C2732       C  0.79329969  0.92774585  0.04653609     0.04000
N2733       N  0.78977094  0.89648803  0.05708019     0.66500
H2734       H  0.82576027  0.92872017  0.01530658     0.15400
H2735       H  0.77178365  0.99024880  0.05644775     0.15100
N2736       N  0.79949899  0.51637351  0.00999777     0.74200
O2737       O  0.75989514  0.87091310  0.06191426    -0.39200
O2738       O  0.81527187  0.89170080  0.05626599    -0.39200
O2739       O  0.77497480  0.51437119  0.99690430    -0.39900
O2740       O  0.82406930  0.54588439  0.01679037    -0.39900
C2741       C  0.92533870  0.59825692  0.01359519    -0.12200
C2742       C  0.92751618  0.56815725  0.01480935     0.04800
C2743       C  0.93977645  0.56070930  0.03715134    -0.07500
C2744       C  0.94538690  0.58098629  0.05907457    -0.08300
C2745       C  0.94028987  0.60947273  0.05860913    -0.02800
C2746       C  0.93133760  0.61882767  0.03535407     0.04000
N2747       N  0.92345655  0.64605104  0.03443539     0.66500
H2748       H  0.91457312  0.60327703  0.99675448     0.15400
H2749       H  0.95333439  0.57422979  0.07656941     0.15100
N2750       N  0.94396335  0.53097199  0.03812718     0.74200
O2751       O  0.44768477  0.67559146  0.02245448    -0.39200
O2752       O  0.89348061  0.63960084  0.04090828    -0.39200
O2753       O  0.96017827  0.52570198  0.02042367    -0.39900
O2754       O  0.93137427  0.50982750  0.05655444    -0.39900
C2755       C  0.75251732  0.68332369  0.25741992    -0.12200
C2756       C  0.72143807  0.67194535  0.27109889     0.04800
C2757       C  0.68956633  0.65416266  0.25799170    -0.07500
C2758       C  0.68946327  0.64891068  0.23149425    -0.08300
C2759       C  0.72067759  0.66147872  0.21753482    -0.02800
C2760       C  0.75245924  0.67800118  0.23100916     0.04000
N2761       N  0.78495218  0.68925081  0.21832586     0.66500
H2762       H  0.77715582  0.69629610  0.26737051     0.15400
H2763       H  0.66477068  0.63635429  0.22165950     0.15100
N2764       N  0.65732879  0.64380811  0.27080369     0.74200
O2765       O  0.80532019  0.72123176  0.21397771    -0.39200
O2766       O  0.79557292  0.66814126  0.21524730    -0.39200
O2767       O  0.65132942  0.66684576  0.27914781    -0.39900
O2768       O  0.63260785  0.61268503  0.26910367    -0.39900
C2769       C  0.76135708  0.78552601  0.37593635    -0.12200
C2770       C  0.78718087  0.78703688  0.39176373     0.04800
C2771       C  0.80845653  0.77440964  0.38265197    -0.07500
C2772       C  0.80113432  0.75709875  0.35905457    -0.08300
C2773       C  0.77287811  0.75230634  0.34440355    -0.02800
C2774       C  0.75470302  0.76910661  0.35197735     0.04000
N2775       N  0.72630633  0.76540314  0.33697134     0.66500
H2776       H  0.74600456  0.79668692  0.38238601     0.15400
H2777       H  0.81453995  0.74339856  0.35386152     0.15100
N2778       N  0.83480272  0.77530300  0.39849178     0.74200
O2779       O  0.69737132  0.75648077  0.34742653    -0.39200
O2780       O  0.72979638  0.77004847  0.31306037    -0.39200
O2781       O  0.82663705  0.75254319  0.41562386    -0.39900
O2782       O  0.86644034  0.79684737  0.39388345    -0.39900
C2783       C  0.88180651  0.99405092  0.48270069    -0.12200
C2784       C  0.88068035  0.96237269  0.48654007     0.04800
C2785       C  0.91194957  0.96299500  0.49164129    -0.07500
C2786       C  0.94378617  0.99448052  0.49025536    -0.08300
C2787       C  0.94267056  0.53141453  0.47746714    -0.02800
C2788       C  0.91801514  0.52261014  0.45785904     0.04000
N2789       N  0.92601962  0.54324267  0.43518746     0.66500
H2790       H  0.85811670  0.99389783  0.47825619     0.15400
H2791       H  0.96778277  0.99429542  0.49246262     0.15100
N2792       N  0.91186077  0.93139499  0.49643679     0.74200
O2793       O  0.94286252  0.53923255  0.41730532    -0.39200
O2794       O  0.90830611  0.55720122  0.43023466    -0.39200
O2795       O  0.93267185  0.92500777  0.48450078    -0.39900
O2796       O  0.89344366  0.91153591  0.51438434    -0.39900
C2797       C  0.62451939  0.60637529  0.38006431    -0.12200
C2798       C  0.63820432  0.61846325  0.40458702     0.04800
C2799       C  0.67438278  0.63652251  0.40808847    -0.07500
C2800       C  0.69606240  0.64444096  0.38676056    -0.08300
C2801       C  0.68261860  0.63740871  0.36172035    -0.02800
C2802       C  0.64642007  0.61628882  0.35849596     0.04000
N2803       N  0.63127389  0.60824284  0.33364867     0.66500
H2804       H  0.59661261  0.59174142  0.37739089     0.15400
H2805       H  0.72393285  0.65949432  0.38970620     0.15100
N2806       N  0.68957005  0.64887720  0.43282626     0.74200
O2807       O  0.62319353  0.57939329  0.32347368    -0.39200
O2808       O  0.61890788  0.62585370  0.32478557    -0.39200
O2809       O  0.67928216  0.62863766  0.45183197    -0.39900
O2810       O  0.71428514  0.67984686  0.43553494    -0.39900
C2811       C  0.91142439  0.85059236  0.45070351    -0.12200
C2812       C  0.88638062  0.83092551  0.46930920     0.04800
C2813       C  0.89187700  0.80946300  0.48589205    -0.07500
C2814       C  0.92349257  0.80970275  0.48449493    -0.08300
C2815       C  0.94919637  0.83099505  0.46654852    -0.02800
C2816       C  0.94225402  0.85039828  0.44889352     0.04000
N2817       N  0.96591176  0.86927073  0.42842767     0.66500
H2818       H  0.90678648  0.86601322  0.43709003     0.15400
H2819       H  0.92847471  0.79442038  0.49795716     0.15100
N2820       N  0.86667996  0.78909844  0.50502131     0.74200
O2821       O  0.96900295  0.85279783  0.40986416    -0.39200
O2822       O  0.97863540  0.90174151  0.42661887    -0.39200
O2823       O  0.84689684  0.75677136  0.50173097    -0.39900
O2824       O  0.86665926  0.80267105  0.52628044    -0.39900
C2825       C  0.61369187  0.99181597  0.48330253    -0.12200
C2826       C  0.58291591  0.95982758  0.48701698     0.04800
C2827       C  0.55200360  0.95979105  0.49270576    -0.07500
C2828       C  0.55188253  0.99114957  0.49283056    -0.08300
C2829       C  0.57686804  0.52005509  0.48363875    -0.02800
C2830       C  0.61369977  0.02342209  0.48345216     0.04000
N2831       N  0.63829767  0.54869180  0.46934909     0.66500
H2832       H  0.63746640  0.99207926  0.47852295     0.15400
H2833       H  0.52739122  0.99011685  0.49605880     0.15100
N2834       N  0.51991117  0.92776587  0.49659506     0.74200
O2835       O  0.66132945  0.56737873  0.48541124    -0.39200
O2836       O  0.64569515  0.55249214  0.44576795    -0.39200
O2837       O  0.51629715  0.90888441  0.51562032    -0.39900
O2838       O  0.49389159  0.92053476  0.48298847    -0.39900
C2839       C  0.99918285  0.62864054  0.34898754    -0.12200
C2840       C  0.96950877  0.63115336  0.35315425     0.04800
C2841       C  0.95442754  0.62427847  0.37788268    -0.07500
C2842       C  0.97181679  0.62044224  0.39844754    -0.08300
C2843       C  0.00305963  0.62074519  0.39491579    -0.02800
C2844       C  0.51708984  0.62424081  0.36987636     0.04000
N2845       N  0.54892057  0.62465441  0.36558883     0.66500
H2846       H  0.51480985  0.63795854  0.33074805     0.15400
H2847       H  0.96082104  0.61758094  0.41745780     0.15100
N2848       N  0.92311401  0.62480348  0.38274871     0.74200
O2849       O  0.54895282  0.60117801  0.35203185    -0.39200
O2850       O  0.57744357  0.65111110  0.37180920    -0.39200
O2851       O  0.89495270  0.60191311  0.37281368    -0.39900
O2852       O  0.92281900  0.64568440  0.39902280    -0.39900
C2853       C  0.95326608  0.73221591  0.37352763    -0.12200
C2854       C  0.97340502  0.73904781  0.35117082     0.04800
C2855       C  0.00615238  0.76985266  0.34950754    -0.05100
C2856       C  0.52008483  0.78905714  0.37482500    -0.08300
C2857       C  0.00143240  0.78123627  0.39447131    -0.02800
C2858       C  0.96729908  0.75274945  0.39530845     0.04000
N2859       N  0.94757604  0.74305463  0.41861945     0.66500
H2860       H  0.92814711  0.70845548  0.37503253     0.15400
H2861       H  0.54666871  0.81060568  0.37567294     0.15100
N2862       N  0.53110756  0.77782773  0.33098383     0.74200
O2863       O  0.92242573  0.74813692  0.42127121    -0.39200
O2864       O  0.95260473  0.72569614  0.43521445    -0.39200
O2865       O  0.03378843  0.80368790  0.31357850    -0.39900
O2866       O  0.55158418  0.76620795  0.33034613    -0.39900
C2867       C  0.93637619  0.64273922  0.25746955    -0.12200
C2868       C  0.95472233  0.67565304  0.26925107     0.04800
C2869       C  0.96594163  0.70562676  0.25396688    -0.07500
C2870       C  0.95867882  0.70226525  0.22782215    -0.08300
C2871       C  0.94027132  0.66947355  0.21592591    -0.02800
C2872       C  0.92882069  0.63938705  0.23116583     0.04000
N2873       N  0.41870398  0.60643073  0.21975337     0.66500
H2874       H  0.43444400  0.62124747  0.26831681     0.15400
H2875       H  0.96830738  0.72588478  0.21669387     0.15100
N2876       N  0.98593161  0.73993691  0.26439163     0.74200
O2877       O  0.43905902  0.59601338  0.21300801    -0.39200
O2878       O  0.38633724  0.58523345  0.22026292    -0.39200
O2879       O  0.01862099  0.75444845  0.26512771    -0.39900
O2880       O  0.97180304  0.75790315  0.26812423    -0.39900
C2881       C  0.78876728  0.96549433  0.37765833    -0.12200
C2882       C  0.77962992  0.94824712  0.35391521     0.04800
C2883       C  0.78218276  0.91832875  0.35042393    -0.07500
C2884       C  0.78975749  0.90403232  0.37143777    -0.08300
C2885       C  0.79422978  0.91880352  0.39602090    -0.02800
C2886       C  0.79566179  0.95092142  0.39871378     0.04000
N2887       N  0.80312440  0.96859823  0.42278707     0.66500
H2888       H  0.78722714  0.98876199  0.38050403     0.15400
H2889       H  0.78948458  0.87978091  0.36884636     0.15100
N2890       N  0.77301209  0.89978133  0.32666738     0.74200
O2891       O  0.83430369  0.98728760  0.42976365    -0.39200
O2892       O  0.77941245  0.97022906  0.43487256    -0.39200
O2893       O  0.79601287  0.89797700  0.31371424    -0.39900
O2894       O  0.74137169  0.88003151  0.32117102    -0.39900
C2895       C  0.67906066  0.96303311  0.37702794    -0.12200
C2896       C  0.67237655  0.94409233  0.35407817     0.04800
C2897       C  0.64185034  0.91127680  0.35212323    -0.07500
C2898       C  0.62044818  0.89669862  0.37369578    -0.08300
C2899       C  0.62921604  0.91416980  0.39740996    -0.02800
C2900       C  0.65796399  0.94830399  0.39866137     0.04000
N2901       N  0.66640483  0.96810233  0.42181608     0.66500
H2902       H  0.70265133  0.98822222  0.37883548     0.15400
H2903       H  0.59798670  0.87068140  0.37224310     0.15100
N2904       N  0.63469831  0.89060811  0.32950070     0.74200
O2905       O  0.69153899  0.97211679  0.43520334    -0.39200
O2906       O  0.65223423  0.98573615  0.42679466    -0.39200
O2907       O  0.64434604  0.86856270  0.32793037    -0.39900
O2908       O  0.61445530  0.89070567  0.31289011    -0.39900
C2909       C  0.70265913  0.95326410  0.25701093    -0.12200
C2910       C  0.73100938  0.95516081  0.27006501     0.04800
C2911       C  0.75887824  0.95744982  0.25524525    -0.07500
C2912       C  0.75734964  0.95683654  0.22843331    -0.08300
C2913       C  0.72898847  0.95481201  0.21551572    -0.02800
C2914       C  0.70142102  0.95309359  0.23017124     0.04000
N2915       N  0.67121663  0.94967010  0.21819512     0.66500
H2916       H  0.68082139  0.95136799  0.26762281     0.15400
H2917       H  0.77902625  0.95862805  0.21763157     0.15100
N2918       N  0.78936570  0.96105974  0.26686734     0.74200
O2919       O  0.64716524  0.92000727  0.21118511    -0.39200
O2920       O  0.66618586  0.97503303  0.21828555    -0.39200
O2921       O  0.79593647  0.93681568  0.26473621    -0.39900
O2922       O  0.81272775  0.99059133  0.27470884    -0.39900
C2923       C  0.78727577  0.81422895  0.56071205    -0.12200
C2924       C  0.77579634  0.83409908  0.54773735     0.04800
C2925       C  0.76454968  0.85332654  0.56245274    -0.07500
C2926       C  0.76582352  0.85307231  0.58913175    -0.08300
C2927       C  0.77800445  0.83396139  0.60202037    -0.02800
C2928       C  0.78835252  0.81393040  0.58757877     0.04000
N2929       N  0.80175510  0.79468871  0.59976470     0.66500
H2930       H  0.79608196  0.79926052  0.54999973     0.15400
H2931       H  0.75737369  0.86833115  0.59987846     0.15100
N2932       N  0.75232510  0.87391798  0.55076466     0.74200
O2933       O  0.78198881  0.76257420  0.60398821    -0.39200
O2934       O  0.83409739  0.80851492  0.60294668    -0.39200
O2935       O  0.72005452  0.86191979  0.54883661    -0.39900
O2936       O  0.77331436  0.90574873  0.54632179    -0.39900
C2937       C  0.59562675  0.51904911  0.89790699    -0.12200
C2938       C  0.59723089  0.49254244  0.88446727     0.04800
C2939       C  0.60049265  0.46741101  0.89865505    -0.07500
C2940       C  0.60440901  0.47064167  0.92528385    -0.08300
C2941       C  0.60439276  0.49805763  0.93862114    -0.02800
C2942       C  0.59880194  0.52183251  0.92461700     0.04000
N2943       N  0.63243630  0.06421071  0.93887010     0.66500
H2944       H  0.59254193  0.53829824  0.88762334     0.15400
H2945       H  0.60793724  0.45162015  0.93548555     0.15100
N2946       N  0.59977200  0.43827952  0.88643896     0.74200
O2947       O  0.62092347  0.58000656  0.93570784    -0.39200
O2948       O  0.61836585  0.08256093  0.93907904    -0.39200
O2949       O  0.62620084  0.43505317  0.88710297    -0.39900
O2950       O  0.57138650  0.41348127  0.87818456    -0.39900
C2951       C  0.77140506  0.65822869  0.82211479    -0.12200
C2952       C  0.76872945  0.68795120  0.81935838     0.04800
C2953       C  0.73533670  0.68392464  0.81856849    -0.07500
C2954       C  0.70548076  0.65018276  0.81864283    -0.08300
C2955       C  0.70854335  0.62029726  0.81885287    -0.02800
C2956       C  0.74205619  0.62471841  0.82132558     0.04000
N2957       N  0.74731243  0.59565197  0.82097331     0.66500
H2958       H  0.79693065  0.66094710  0.82227419     0.15400
H2959       H  0.68011788  0.64735070  0.81620975     0.15100
N2960       N  0.73149850  0.71344941  0.81484309     0.74200
O2961       O  0.74464004  0.58021650  0.80005622    -0.39200
O2962       O  0.76421303  0.59245803  0.83888519    -0.39200
O2963       O  0.72728587  0.72142540  0.79258025    -0.39900
O2964       O  0.72797088  0.72882930  0.83395555    -0.39900
C2965       C  0.91553258  0.79679201  0.89799104    -0.12200
C2966       C  0.88690824  0.79261732  0.88410984     0.04800
C2967       C  0.85653505  0.78572121  0.89763906    -0.07500
C2968       C  0.85509039  0.78248500  0.92435436    -0.08300
C2969       C  0.88353147  0.78616670  0.93830189    -0.02800
C2970       C  0.91431494  0.79413685  0.92477467     0.04000
N2971       N  0.94502848  0.80085105  0.93791063     0.66500
H2972       H  0.93930049  0.80270820  0.88801903     0.15400
H2973       H  0.83107868  0.77615873  0.93411707     0.15100
N2974       N  0.82616185  0.77995728  0.88447602     0.74200
O2975       O  0.95430479  0.77847905  0.93743399    -0.39200
O2976       O  0.96566677  0.83106971  0.94628228    -0.39200
O2977       O  0.80221119  0.74921832  0.87973517    -0.39900
O2978       O  0.82057827  0.80476127  0.88182025    -0.39900
C2979       C  0.80583813  0.78158104  0.68416818    -0.12200
C2980       C  0.77983234  0.78958817  0.68890545     0.04800
C2981       C  0.76655904  0.78617204  0.71403174    -0.07500
C2982       C  0.78292618  0.78023626  0.73433977    -0.08300
C2983       C  0.81177393  0.77634690  0.73009526    -0.02800
C2984       C  0.82173596  0.77462610  0.70445915     0.04000
N2985       N  0.84947456  0.76841768  0.69866624     0.66500
H2986       H  0.81627006  0.78412274  0.66495804     0.15400
H2987       H  0.77362574  0.77985162  0.75364409     0.15100
N2988       N  0.73860716  0.79218173  0.71944167     0.74200
O2989       O  0.84431673  0.73795641  0.70055302    -0.39200
O2990       O  0.87608727  0.79123694  0.68682266    -0.39200
O2991       O  0.70816760  0.77004099  0.71252618    -0.39900
O2992       O  0.74332189  0.81659349  0.73431213    -0.39900
C2993       C  0.88842838  0.63706175  0.82865655    -0.12200
C2994       C  0.91079426  0.63342517  0.81158196     0.04800
C2995       C  0.93503914  0.66249128  0.79705377    -0.07500
C2996       C  0.93440107  0.69350365  0.79812365    -0.08300
C2997       C  0.91022824  0.69620714  0.81372390    -0.02800
C2998       C  0.88866008  0.66861836  0.83042291     0.04000
N2999       N  0.86695966  0.67247759  0.84902345     0.66500
H3000       H  0.87037850  0.61507095  0.84030029     0.15400
H3001       H  0.95092112  0.71450877  0.78514417     0.15100
N3002       N  0.95759958  0.65966547  0.77889170     0.74200
O3003       O  0.83803979  0.64661708  0.85551589    -0.39200
O3004       O  0.87834081  0.70084706  0.86104147    -0.39200
O3005       O  0.95080340  0.65756374  0.75532695    -0.39900
O3006       O  0.98728948  0.66621768  0.78583973    -0.39900
C3007       C  0.70996590  0.97286848  0.78967832    -0.12200
C3008       C  0.70492831  0.47832546  0.81212603     0.04800
C3009       C  0.72864284  0.48984004  0.83260803    -0.07500
C3010       C  0.76088811  0.49153141  0.82948393    -0.08300
C3011       C  0.76988377  0.48245182  0.80598429    -0.02800
C3012       C  0.74086980  0.97283397  0.78564025     0.04000
N3013       N  0.74563569  0.95990881  0.76183890     0.66500
H3014       H  0.69144920  0.96480178  0.77419480     0.15400
H3015       H  0.77979902  0.50225941  0.84473305     0.15100
N3016       N  0.72035629  0.49985102  0.85652441     0.74200
O3017       O  0.73231132  0.92746495  0.75906909    -0.39200
O3018       O  0.75455886  0.97914029  0.74228119    -0.39200
O3019       O  0.71621064  0.48205095  0.87632834    -0.39900
O3020       O  0.71451887  0.52466140  0.85761640    -0.39900
C3021       C  0.85954579  0.98568606  0.91870542    -0.12200
C3022       C  0.88581519  0.51015249  0.93133720     0.04800
C3023       C  0.91688139  0.53481885  0.91854941    -0.07500
C3024       C  0.91938497  0.53397713  0.89191764    -0.08300
C3025       C  0.89187625  0.50878380  0.87726082    -0.02800
C3026       C  0.86055917  0.98403446  0.89192523     0.04000
N3027       N  0.83118959  0.95668474  0.87898530     0.66500
H3028       H  0.83660078  0.96583402  0.92861548     0.15400
H3029       H  0.94316008  0.55350126  0.88261519     0.15100
N3030       N  0.94621405  0.56134550  0.93206015     0.74200
O3031       O  0.82790492  0.92695593  0.87707373    -0.39200
O3032       O  0.80625724  0.96075459  0.87286588    -0.39200
O3033       O  0.97093838  0.55669856  0.93768569    -0.39900
O3034       O  0.95000512  0.59123102  0.93453764    -0.39900
C3035       C  0.79660777  0.93462976  0.71574439    -0.12200
C3036       C  0.83204038  0.95094455  0.72133919     0.04800
C3037       C  0.85462254  0.94649781  0.70484782    -0.07500
C3038       C  0.84070592  0.92408902  0.68377112    -0.08300
C3039       C  0.80469942  0.90539727  0.67958673    -0.02800
C3040       C  0.78274268  0.91179884  0.69507640     0.04000
N3041       N  0.74599163  0.89311065  0.69122340     0.66500
H3042       H  0.77950234  0.93870946  0.72801076     0.15400
H3043       H  0.85746618  0.91807715  0.67248062     0.15100
N3044       N  0.89076861  0.96139153  0.71073896     0.74200
O3045       O  0.72670956  0.86640543  0.70445499    -0.39200
O3046       O  0.73248774  0.90615479  0.67747717    -0.39200
O3047       O  0.89960567  0.95669414  0.73254436    -0.39900
O3048       O  0.91335893  0.97436375  0.69313026    -0.39900
C3049       C  0.46937374  0.84394935  0.69554989    -0.12200
C3050       C  0.97678533  0.82282203  0.68029472     0.04800
C3051       C  0.96643582  0.78912898  0.68902006    -0.07500
C3052       C  0.94944843  0.77787455  0.71276326    -0.08300
C3053       C  0.94295108  0.80005413  0.72797644    -0.02800
C3054       C  0.94973872  0.83212331  0.71779401     0.04000
N3055       N  0.94125616  0.85448606  0.73178327     0.66500
H3056       H  0.47885731  0.87046812  0.68932144     0.15400
H3057       H  0.94343677  0.75270335  0.72004107     0.15100
N3058       N  0.97699198  0.76802308  0.67561264     0.74200
O3059       O  0.47009922  0.88303545  0.74384938    -0.39200
O3060       O  0.91095545  0.84972482  0.73056121    -0.39200
O3061       O  0.00298125  0.76661737  0.68313457    -0.39900
O3062       O  0.95837054  0.74820503  0.65783284    -0.39900
C3063       C  0.61227511  0.96404452  0.71023452    -0.12200
C3064       C  0.61348726  0.94826733  0.73301225     0.04800
C3065       C  0.61084452  0.91558411  0.73214154    -0.07500
C3066       C  0.60379484  0.89770347  0.70887683    -0.08300
C3067       C  0.59770010  0.91133177  0.68666132    -0.02800
C3068       C  0.60388437  0.94558801  0.68707614     0.04000
N3069       N  0.59692654  0.95994067  0.66511757     0.66500
H3070       H  0.61524843  0.98968295  0.71077600     0.15400
H3071       H  0.59838283  0.87109219  0.70891989     0.15100
N3072       N  0.61248387  0.89911869  0.75501927     0.74200
O3073       O  0.56679828  0.95498728  0.66184267    -0.39200
O3074       O  0.62190149  0.98234622  0.65170722    -0.39200
O3075       O  0.58481912  0.87866652  0.76696436    -0.39900
O3076       O  0.64042619  0.90035576  0.76078079    -0.39900
C3077       C  0.52244323  0.82732121  0.58944280    -0.12200
C3078       C  0.55245289  0.84826540  0.60386719     0.04800
C3079       C  0.58516051  0.86343667  0.59126399    -0.07500
C3080       C  0.58700222  0.85820962  0.56488242    -0.08300
C3081       C  0.55682444  0.83793512  0.55037685    -0.02800
C3082       C  0.52422114  0.82203780  0.56319761     0.04000
N3083       N  0.49229004  0.80149274  0.54982792     0.66500
H3084       H  0.49695774  0.81529936  0.59839553     0.15400
H3085       H  0.61234014  0.87065029  0.55567064     0.15100
N3086       N  0.61686031  0.88430448  0.60480571     0.74200
O3087       O  0.48098210  0.76953923  0.54600639    -0.39200
O3088       O  0.47254630  0.81352750  0.54622886    -0.39200
O3089       O  0.63187170  0.87009046  0.61516938    -0.39900
O3090       O  0.63224903  0.91707542  0.60333856    -0.39900
C3091       C  0.62936276  0.62106869  0.70831631    -0.12200
C3092       C  0.60952955  0.60033310  0.68769573     0.04800
C3093       C  0.59944349  0.56479357  0.68695021    -0.07500
C3094       C  0.60689200  0.55015571  0.70780983    -0.08300
C3095       C  0.62325044  0.57024611  0.72959674    -0.02800
C3096       C  0.63643998  0.60634689  0.72920240     0.04000
N3097       N  0.65667891  0.62813142  0.74999052     0.66500
H3098       H  0.63725605  0.64841403  0.70898534     0.15400
H3099       H  0.59722214  0.52240000  0.70790512     0.15100
N3100       N  0.57785783  0.54233664  0.66693575     0.74200
O3101       O  0.68476193  0.62975425  0.75594822    -0.39200
O3102       O  0.64795054  0.64770041  0.76115252    -0.39200
O3103       O  0.58769347  0.52478187  0.65415223    -0.39900
O3104       O  0.54664878  0.53493873  0.66544865    -0.39900
C3105       C  0.98146395  0.60177810  0.68557958    -0.12200
C3106       C  0.52049788  0.62748617  0.69328441     0.04800
C3107       C  0.52952110  0.63711612  0.71922289    -0.07500
C3108       C  0.00015379  0.62207039  0.73650126    -0.08300
C3109       C  0.96658052  0.59512997  0.73095634    -0.02800
C3110       C  0.95641786  0.58654546  0.70517949     0.04000
N3111       N  0.92157414  0.56055957  0.69882259     0.66500
H3112       H  0.97457509  0.59196689  0.66619750     0.15400
H3113       H  0.00771488  0.62969280  0.75620169     0.15100
N3114       N  0.56473954  0.66115354  0.72638302     0.74200
O3115       O  0.91578133  0.53306968  0.68750312    -0.39200
O3116       O  0.89781181  0.56786821  0.70018732    -0.39200
O3117       O  0.57952402  0.69225864  0.71867224    -0.39900
O3118       O  0.57982761  0.65237927  0.74240771    -0.39900
C3119       C  0.58096180  0.60894638  0.56459807    -0.12200
C3120       C  0.56510660  0.62522121  0.55239234     0.04800
C3121       C  0.54779987  0.63797470  0.56777161    -0.07500
C3122       C  0.54780884  0.63535055  0.59459387    -0.08300
C3123       C  0.56433099  0.61963976  0.60676924    -0.02800
C3124       C  0.58041047  0.60568107  0.59121831     0.04000
N3125       N  0.59525829  0.58683859  0.60189824     0.66500
H3126       H  0.59360386  0.59796883  0.55339673     0.15400
H3127       H  0.53504297  0.64607884  0.60591445     0.15100
N3128       N  0.02435399  0.64716693  0.55540012     0.74200
O3129       O  0.57617000  0.55454681  0.60576605    -0.39200
O3130       O  0.62788859  0.60064926  0.60255887    -0.39200
O3131       O  0.99245393  0.62488135  0.55311117    -0.39900
O3132       O  0.54521210  0.68659256  0.55527743    -0.39900
loop_ 
_geom_bond_atom_site_label_1 
_geom_bond_atom_site_label_2 
_geom_bond_distance 
_geom_bond_site_symmetry_2 
_ccdc_geom_bond_type 
C1            N2   1.372       .  A
C1            N6   1.371       .  A
C1          C774   1.493       .  S
N2            C3   1.363       .  A
C3            N4   1.343       .  A
C3          C757   1.477       .  S
N4            C5   1.340       .  A
C5            N6   1.359       .  A
C5          C743   1.469       .  S
C7            N8   1.371       .  A
C7           N12   1.370       .  A
C7          C729   1.499       .  S
N8            C9   1.362       .  A
C9           N10   1.345       .  A
C9          C718   1.469       .  S
N10          C11   1.340       .  A
C11          N12   1.356       .  A
C11        C2267   1.463   1_455  S
C13          C36   1.507       .  S
C13          C14   1.416       .  A
C13          C18   1.420       .  A
C14          C15   1.409       .  A
C14          H19   1.083       .  S
C15          C58   1.510       .  S
C15          C16   1.421       .  A
C16          C17   1.418       .  A
C16          H20   1.083       .  S
C17        C1646   1.520       .  S
C17          C18   1.420       .  A
C18          H21   1.083       .  S
O22         Cr40   1.999       .  S
O22          C30   1.259   1_545  A
O23         Cr40   1.968       .  S
O23          C24   1.261       .  A
C24         C645   1.472       .  S
C24          O25   1.270       .  A
O25         Cr41   2.024       .  S
O26         Cr41   1.975       .  S
O26          C27   1.262       .  A
C27         C676   1.484       .  S
C27          O28   1.264   1_545  A
O28        Cr825   1.997       .  S
O29         Cr42   1.999       .  S
O29         C813   1.257       .  A
C30         C662   1.486       .  S
C30         O812   1.259       .  A
O31        Cr823   1.953       .  S
O31          C39   1.254       .  A
O32         Cr40   1.993       .  S
O32          C33   1.258       .  A
C33         C760   1.467       .  S
C33          O34   1.263       .  A
O34         Cr41   1.987       .  S
O35         Cr41   2.027       .  S
O35         C819   1.270   1_545  A
C36          O37   1.263       .  A
C36         O818   1.270       .  A
O37         Cr42   1.989       .  S
O38         Cr42   2.022       .  S
O38          C39   1.272       .  A
C39         C687   1.459       .  S
Cr40        O814   1.953       .  S
Cr40         O43   1.775       .  S
Cr41         O43   1.775       .  S
Cr42        O811   2.005       .  S
Cr42        O826   1.776       .  S
O43        Cr825   1.775   1_545  S
O44         Cr62   1.973       .  S
O44          C52   1.257       .  A
O45         Cr62   1.985       .  S
O45          C46   1.257       .  A
C46         C603   1.482       .  S
C46          O47   1.264       .  A
O47         Cr63   2.013       .  S
O48         Cr63   2.015       .  S
O48          C49   1.272       .  A
C49         C617   1.487       .  S
C49          O50   1.266       .  A
O50         Cr64   1.979       .  S
O51         Cr64   2.012       .  S
O51          C52   1.264       .  A
C52         C648   1.474       .  S
O53         Cr62   2.001       .  S
O53          C61   1.263       .  A
O54         Cr62   1.961       .  S
O54          C55   1.258       .  A
C55         C634   1.487       .  S
C55          O56   1.273       .  A
O56         Cr63   2.018       .  S
O57         Cr63   2.028       .  S
O57          C58   1.270       .  A
C58          O59   1.261       .  A
O59         Cr64   2.000       .  S
O60         Cr64   1.984       .  S
O60          C61   1.263       .  A
C61         C704   1.472       .  S
Cr62         O65   1.776       .  S
Cr63         O65   1.774       .  S
Cr64         O65   1.777       .  S
O66         Cr84   1.995       .  S
O66          C74   1.258       .  A
O67         Cr84   1.977       .  S
O67          C68   1.258   1_545  A
C68         C659   1.479       .  S
C68         O852   1.270       .  A
O69         Cr85   2.035       .  S
O69         C851   1.269       .  A
O70         Cr85   1.968       .  S
O70         C854   1.261       .  A
C71         C589   1.485       .  S
C71          O72   1.273   1_565  A
C71         O853   1.264       .  A
O72         Cr86   2.020       .  S
O73         Cr86   2.006       .  S
O73          C74   1.259       .  A
C74         C606   1.487       .  S
O75         Cr84   1.959       .  S
O75          C83   1.256       .  A
O76        Cr867   1.994       .  S
O76          C77   1.259       .  A
C77         C715   1.466       .  S
C77          O78   1.265       .  A
O78         Cr85   1.987       .  S
O79         Cr85   2.036       .  S
O79          C80   1.271       .  A
C80        C1583   1.519   1_455  S
C80         O864   1.266       .  A
O81         Cr86   2.011       .  S
O81         C863   1.265   1_545  A
O82         Cr86   2.033       .  S
O82          C83   1.276       .  A
C83         C746   1.477       .  S
Cr84        O859   1.996   1_545  S
Cr84         O87   1.779       .  S
Cr85        O870   1.781       .  S
Cr86         O87   1.783       .  S
O87        Cr868   1.784   1_545  S
C88          N89   1.369       .  A
C88          N93   1.364       .  A
C88         C578   1.477       .  S
N89          C90   1.363       .  A
C90          N91   1.346       .  A
C90         C631   1.472       .  S
N91          C92   1.343       .  A
C92          N93   1.352       .  A
C92         C690   1.456       .  S
C94          N95   1.370       .  A
C94          N99   1.366       .  A
C94         C561   1.486       .  S
N95          C96   1.362       .  A
C96          N97   1.345       .  A
C96         C547   1.472       .  S
N97          C98   1.343       .  A
C98          N99   1.356       .  A
C98         C533   1.465       .  S
C100        N101   1.369       .  A
C100        N105   1.373       .  A
C100        C519   1.501       .  S
N101        C102   1.359       .  A
C102        N103   1.345       .  A
C102        C505   1.475       .  S
N103        C104   1.342       .  A
C104        N105   1.361       .  A
C104        C491   1.468       .  S
C106        C129   1.507       .  S
C106        C107   1.420       .  A
C106        C111   1.416       .  A
C107        C108   1.415       .  A
C107        H112   1.083       .  S
C108        C151   1.510       .  S
C108        C109   1.411       .  A
C109        C110   1.417       .  A
C109        H113   1.083       .  S
C110        C173   1.505       .  S
C110        C111   1.414       .  A
C111        H114   1.083       .  S
O115      Cr1699   1.964       .  S
O115        C123   1.258       .  A
O116       Cr133   1.994       .  S
O116        C117   1.258       .  A
C117        C477   1.484       .  S
C117        O118   1.263       .  A
O118       Cr134   2.010       .  S
O119       Cr134   2.020       .  S
O119        C120   1.270       .  A
C120        C732   1.495       .  S
C120        O121   1.260       .  A
O121       Cr135   1.968       .  S
O122      Cr1701   2.031       .  S
O122        C123   1.268       .  A
C123        C466   1.478       .  S
O124       Cr133   2.002   1_655  S
O124        C132   1.261   1_655  A
O125       Cr133   1.962       .  S
O125        C126   1.260       .  A
C126        C550   1.484       .  S
C126        O127   1.273       .  A
O127       Cr134   2.023       .  S
O128       Cr134   2.008       .  S
O128        C129   1.267       .  A
C129        O130   1.268       .  A
O130       Cr135   2.018       .  S
O131       Cr135   1.976       .  S
O131        C132   1.260       .  A
C132       C2074   1.471   1_455  S
Cr133      O1681   1.964   1_455  S
Cr133       O136   1.773       .  S
Cr134       O136   1.779       .  S
Cr135      O1688   2.027   1_455  S
Cr135       O136   1.777       .  S
O137       Cr155   1.972       .  S
O137        C145   1.262       .  A
O138      Cr1721   1.988       .  S
O138        C139   1.258       .  A
C139        C438   1.476       .  S
C139        O140   1.258       .  A
O140      Cr1722   1.998       .  S
O141       Cr156   2.022       .  S
O141        C142   1.271       .  A
C142        C771   1.488       .  S
C142        O143   1.261       .  A
O143       Cr157   1.973       .  S
O144       Cr157   2.038       .  S
O144        C145   1.272       .  A
C145        C480   1.493       .  S
O146       Cr155   1.991       .  S
O146        C154   1.258       .  A
O147       Cr155   1.965       .  S
O147        C148   1.258       .  A
C148       C2060   1.476       .  S
C148        O149   1.275       .  A
O149       Cr156   2.034       .  S
O150       Cr156   2.001       .  S
O150        C151   1.264       .  A
C151        O152   1.271       .  A
O152       Cr157   2.031       .  S
O153       Cr157   1.983       .  S
O153        C154   1.262       .  A
C154        C449   1.471       .  S
Cr155      O1704   1.995   1_455  S
Cr155       O158   1.777       .  S
Cr156      O1706   1.994   1_455  S
Cr156       O158   1.783       .  S
Cr157       O158   1.778       .  S
O159       Cr177   1.976       .  S
O159        C167   1.256       .  A
O160       Cr177   1.975       .  S
O160        C161   1.261       .  A
C161        C463   1.477       .  S
C161        O162   1.267       .  A
O162       Cr178   2.016       .  S
O163       Cr178   1.980       .  S
O163        C164   1.266       .  A
C164        C575   1.490       .  S
C164        O165   1.269       .  A
O165       Cr179   2.003       .  S
O166       Cr179   2.018       .  S
O166        C167   1.262       .  A
C167        C435   1.486       .  S
O168       Cr177   1.962       .  S
O168        C176   1.261       .  A
O169       Cr177   1.992       .  S
O169        C170   1.257       .  A
C170        C421   1.475       .  S
C170        O171   1.265       .  A
O171       Cr178   2.001       .  S
O172       Cr178   1.999       .  S
O172        C173   1.262       .  A
C173        O174   1.266       .  A
O174       Cr179   2.015       .  S
O175       Cr179   2.018       .  S
O175        C176   1.272       .  A
C176        C536   1.476       .  S
Cr177       O180   1.773       .  S
Cr178       O180   1.773       .  S
Cr179       O180   1.777       .  S
C181        N182   1.370       .  A
C181        N186   1.375       .  A
C181        C407   1.496       .  S
N182        C183   1.354       .  A
C183        N184   1.335       .  A
C183        C424   1.462       .  S
N184        C185   1.343       .  A
C185        N186   1.367       .  A
C185        C452   1.485       .  S
C187        N192   1.365       .  A
C187        N971   1.370   1_545  A
C187        C673   1.493       .  S
N188        C189   1.362       .  A
N188        C970   1.372       .  A
C189        N973   1.344   1_556  A
C189        C379   1.464   1_556  S
N190        C191   1.344   1_554  A
N190        C972   1.344   1_544  A
C191        N192   1.354       .  A
C191        C393   1.460   1_556  S
C193        N194   1.370       .  A
C193        N198   1.370       .  A
C193        C620   1.496       .  S
N194        C195   1.358   1_556  A
C195        N196   1.341       .  A
C195        C354   1.464       .  S
N196        C197   1.343       .  A
C197        N198   1.360   1_554  A
C197        C368   1.466       .  S
C199        C266   1.515       .  S
C199        C200   1.416       .  A
C199        C204   1.424       .  A
C200        C201   1.417       .  A
C200        H205   1.083       .  S
C201        C222   1.506       .  S
C201        C202   1.410       .  A
C202        C203   1.415       .  A
C202        H206   1.083       .  S
C203       C1027   1.513       .  S
C203        C204   1.421       .  A
C204        H207   1.083       .  S
O208       Cr226   1.962   1_455  S
O208        C216   1.262       .  A
O209       Cr226   1.990   1_455  S
O209        C210   1.256       .  A
C210        C326   1.486       .  S
C210        O211   1.262   1_455  A
O211      Cr1793   2.011       .  S
O212       Cr227   2.010       .  S
O212        C213   1.269       .  A
C213        C522   1.492       .  S
C213        O214   1.264       .  A
O214       Cr228   1.978       .  S
O215      Cr1794   2.030       .  S
O215        C216   1.269   1_655  A
C216        C337   1.485       .  S
O217      Cr1792   1.995       .  S
O217        C225   1.256       .  A
O218      Cr1792   1.964       .  S
O218        C219   1.261       .  A
C219        C396   1.476       .  S
C219        O220   1.273       .  A
O220       Cr227   2.020       .  S
O221       Cr227   2.008       .  S
O221        C222   1.267       .  A
C222        O223   1.266       .  A
O223       Cr228   2.014       .  S
O224       Cr228   1.986       .  S
O224        C225   1.262       .  A
C225        C365   1.476       .  S
Cr226      O1783   1.998       .  S
Cr226      O1784   1.965       .  S
Cr226      O1795   1.773       .  S
Cr227      O1777   2.010       .  S
Cr227       O229   1.774       .  S
Cr228      O1781   2.028       .  S
Cr228       O229   1.775       .  S
O229      Cr1792   1.771       .  S
O230       Cr248   1.980       .  S
O230        C238   1.261       .  A
O231       Cr248   1.984       .  S
O231        C232   1.258       .  A
C232        C340   1.477       .  S
C232        O233   1.260       .  A
O233       Cr249   2.000       .  S
O234       Cr249   2.009       .  S
O234        C235   1.270       .  A
C235        C564   1.490       .  S
C235        O236   1.266       .  A
O236       Cr250   1.977       .  S
O237       Cr250   2.044       .  S
O237        C238   1.269       .  A
C238        C295   1.502       .  S
O239       Cr248   2.001       .  S
O239        C247   1.261       .  A
O240       Cr248   1.970       .  S
O240        C241   1.261       .  A
C241        C309   1.483       .  S
C241        O242   1.272       .  A
O242       Cr249   2.017       .  S
O243       Cr249   2.015       .  S
O243        C244   1.266       .  A
C244        C986   1.514       .  S
C244        O245   1.268       .  A
O245       Cr250   2.021       .  S
O246       Cr250   1.990       .  S
O246        C247   1.264       .  A
C247        C382   1.478       .  S
Cr248       O251   1.775       .  S
Cr249       O251   1.783       .  S
Cr250       O251   1.775       .  S
O252       Cr270   1.981       .  S
O252        C260   1.257       .  A
O253       Cr270   1.991       .  S
O253        C254   1.259       .  A
C254        C298   1.484       .  S
C254        O255   1.263       .  A
O255       Cr271   2.008       .  S
O256       Cr271   2.011       .  S
O256        C257   1.269       .  A
C257        C410   1.493       .  S
C257        O258   1.265       .  A
O258       Cr272   1.981       .  S
O259       Cr272   2.028       .  S
O259        C260   1.266       .  A
C260        C323   1.480       .  S
O261       Cr270   1.996       .  S
O261        C269   1.261       .  A
O262       Cr270   1.967       .  S
O262        C263   1.257       .  A
C263        C351   1.480       .  S
C263        O264   1.272       .  A
O264       Cr271   2.024       .  S
O265       Cr271   2.016       .  S
O265        C266   1.269       .  A
C266        O267   1.269       .  A
O267       Cr272   2.029       .  S
O268       Cr272   1.980       .  S
O268        C269   1.264       .  A
C269        C281   1.463       .  S
Cr270       O273   1.778       .  S
Cr271       O273   1.782       .  S
Cr272       O273   1.783       .  S
C274        N279   1.370   1_565  A
C274       N1058   1.371       .  A
C274        C592   1.495       .  S
N275        C276   1.360   1_556  A
N275       C1057   1.371       .  A
C276       N1060   1.343       .  A
C276        C312   1.466       .  S
N277        C278   1.343   1_565  A
N277       C1059   1.342       .  A
C278        N279   1.361   1_554  A
C278        C284   1.472       .  S
C280        C281   1.402       .  A
C280        C285   1.402       .  A
C280        H287   1.084       .  S
C281        C282   1.402       .  A
C282        C283   1.395       .  A
C282        N289   1.429       .  S
C283        C284   1.408       .  A
C283        H288   1.085       .  S
C284        C285   1.410       .  A
C285        N286   1.427       .  S
N286        O290   1.262   1_554  A
N286        O291   1.262   1_554  A
N289        O293   1.262       .  A
N289        O292   1.262       .  A
C294        C295   1.396       .  A
C294        C299   1.394       .  A
C294        H301   1.142       .  S
C295        C296   1.415       .  A
C296        C297   1.415       .  A
C296        N303   1.429       .  S
C297        C298   1.407       .  A
C297        H302   1.091       .  S
C298        C299   1.405       .  A
C299        N300   1.429       .  S
N300        O304   1.262       .  A
N300        O305   1.262       .  A
N303        O307   1.261       .  A
N303        O306   1.262       .  A
C308        C309   1.408       .  A
C308        C313   1.404       .  A
C308        H315   1.084       .  S
C309        C310   1.411       .  A
C310        C311   1.397       .  A
C310        N317   1.430       .  S
C311        C312   1.402       .  A
C311        H316   1.085       .  S
C312        C313   1.409       .  A
C313        N314   1.432   1_554  S
N314        O318   1.262       .  A
N314        O319   1.262       .  A
N317        O321   1.262       .  A
N317        O320   1.262       .  A
C322        C323   1.399       .  A
C322        C327   1.399       .  A
C322        H329   1.085       .  S
C323        C324   1.412       .  A
C324        C325   1.414       .  A
C324        N331   1.433       .  S
C325        C326   1.407       .  A
C325        H330   1.084       .  S
C326        C327   1.416       .  A
C327        N328   1.432       .  S
N328        O332   1.262       .  A
N328        O333   1.262       .  A
N331        O335   1.263       .  A
N331        O334   1.262       .  A
C336        C337   1.398       .  A
C336        C341   1.391       .  A
C336        H343   1.085       .  S
C337        C338   1.416       .  A
C338        C339   1.412       .  A
C338        N345   1.430       .  S
C339        C340   1.404       .  A
C339        H344   1.083       .  S
C340        C341   1.405       .  A
C341        N342   1.420       .  S
N342        O346   1.262       .  A
N342        O347   1.262       .  A
N345        O349   1.262       .  A
N345        O348   1.262   1_455  A
C350        C351   1.405       .  A
C350        C355   1.404       .  A
C350        H357   1.084       .  S
C351        C352   1.409       .  A
C352        C353   1.397       .  A
C352        N359   1.426       .  S
C353        C354   1.401       .  A
C353        H358   1.084       .  S
C354        C355   1.410       .  A
C355        N356   1.430   1_554  S
N356        O360   1.262       .  A
N356        O361   1.261       .  A
N359        O363   1.261       .  A
N359        O362   1.262       .  A
C364        C365   1.397       .  A
C364        C369   1.392       .  A
C364        H371   1.084       .  S
C365        C366   1.419       .  A
C366        C367   1.408       .  A
C366        N373   1.432       .  S
C367        C368   1.400       .  A
C367        H372   1.084       .  S
C368        C369   1.412       .  A
C369        N370   1.433       .  S
N370        O374   1.262       .  A
N370        O375   1.263       .  A
N373       O1943   1.262       .  A
N373       O1942   1.262       .  A
O376       N1939   1.262   1_455  A
O377       N1939   1.262       .  A
C378        C379   1.400       .  A
C378        C383   1.406       .  A
C378        H385   1.084       .  S
C379        C380   1.409       .  A
C380        C381   1.398       .  A
C380       N1170   1.430       .  S
C381        C382   1.402       .  A
C381        H386   1.084       .  S
C382        C383   1.416       .  A
C383        N384   1.434       .  S
N384        O388   1.262       .  A
N384        O389   1.262       .  A
N387       C1163   1.430   1_545  S
N387        O391   1.262       .  A
N387        O390   1.262   1_554  A
C392        C393   1.400       .  A
C392        C397   1.400       .  A
C392        H399   1.084   1_554  S
C393        C394   1.407       .  A
C394        C395   1.398       .  A
C394        N401   1.434       .  S
C395        C396   1.403       .  A
C395        H400   1.083       .  S
C396        C397   1.412       .  A
C397        N398   1.428       .  S
N398       O1968   1.262       .  A
N398        O403   1.262       .  A
N401        O405   1.262       .  A
N401        O404   1.263       .  A
O402       N1964   1.262       .  A
C406        C407   1.407       .  A
C406        C411   1.399       .  A
C406        H413   1.084       .  S
C407        C408   1.415       .  A
C408        C409   1.406       .  A
C408        N415   1.427       .  S
C409        C410   1.407       .  A
C409        H414   1.084       .  S
C410        C411   1.414       .  A
C411        N412   1.429       .  S
N412        O416   1.262       .  A
N412        O417   1.262       .  A
N415        O419   1.262       .  A
N415        O418   1.262       .  A
C420        C421   1.400       .  A
C420        C425   1.402       .  A
C420        H427   1.084       .  S
C421        C422   1.412       .  A
C422        C423   1.401       .  A
C422        N429   1.430       .  S
C423        C424   1.401       .  A
C423        H428   1.084       .  S
C424        C425   1.412       .  A
C425        N426   1.434       .  S
N426        O430   1.262       .  A
N426        O431   1.262       .  A
N429        O433   1.262       .  A
N429        O432   1.262       .  A
C434        C435   1.400       .  A
C434       C1222   1.394       .  A
C434        H441   1.083       .  S
C435        C436   1.414       .  A
C436        C437   1.418       .  A
C436        N443   1.432       .  S
C437       C1221   1.409       .  A
C437        H442   1.083       .  S
C438        C439   1.411       .  A
C438       C1220   1.398   1_545  A
C439       C1217   1.412   1_545  A
C439        N440   1.429       .  S
N440        O444   1.262       .  A
N440        O445   1.262       .  A
N443        O447   1.262       .  A
N443        O446   1.262       .  A
C448        C449   1.407       .  A
C448        C453   1.405       .  A
C448        H455   1.084       .  S
C449        C450   1.405       .  A
C450        C451   1.394       .  A
C450        N457   1.435       .  S
C451        C452   1.412       .  A
C451        H456   1.085       .  S
C452        C453   1.409       .  A
C453        N454   1.426       .  S
N454        O458   1.262       .  A
N454        O459   1.262       .  A
N457        O461   1.263       .  A
N457        O460   1.261       .  A
C462        C463   1.406       .  A
C462        C467   1.403       .  A
C462        H469   1.083       .  S
C463        C464   1.408       .  A
C464        C465   1.398       .  A
C464        N471   1.429       .  S
C465        C466   1.401       .  A
C465        H470   1.078       .  S
C466        C467   1.410       .  A
C467        N468   1.428       .  S
N468        O472   1.262       .  A
N468        O473   1.262       .  A
N471        O475   1.262       .  A
N471        O474   1.262       .  A
C476        C477   1.403       .  A
C476        C481   1.412       .  A
C476        H483   1.083       .  S
C477        C478   1.408       .  A
C478        C479   1.398       .  A
C478        N485   1.422       .  S
C479       C1263   1.401       .  A
C479        H484   1.084       .  S
C480       C1262   1.406   1_545  A
C480       C1264   1.417       .  A
C481       C1263   1.418       .  A
C481       N1265   1.428       .  S
N482       C1264   1.427       .  S
N482        O486   1.262       .  A
N482        O487   1.262       .  A
N485        O489   1.262   1_455  A
N485        O488   1.262       .  A
C490        C491   1.405       .  A
C490       C2061   1.403       .  A
C490       H2063   1.084       .  S
C491        C492   1.410       .  A
C492        C493   1.402       .  A
C492        N499   1.429       .  S
C493        C494   1.401       .  A
C493        H498   1.084       .  S
C494       C1714   1.473       .  S
C494       C2061   1.409       .  A
C495       C2056   1.405       .  A
C495       C2060   1.411       .  A
C495        N496   1.429       .  S
N496        O500   1.261       .  A
N496        O501   1.262       .  A
H497       C2056   1.084       .  S
N499        O503   1.262       .  A
N499        O502   1.262       .  A
C504        C505   1.405       .  A
C504        C509   1.395       .  A
C504        H511   1.085       .  S
C505        C506   1.410       .  A
C506       C2073   1.404       .  A
C506       N2079   1.429       .  S
C507       C2072   1.405       .  A
C507       C2074   1.406       .  A
C507        H512   1.084   1_655  S
C508       C1698   1.469       .  S
C508        C509   1.409       .  A
C508       C2073   1.405       .  A
C509        N510   1.434       .  S
N510        O514   1.262       .  A
N510        O515   1.262       .  A
N513       C2072   1.427       .  S
N513        O517   1.262   1_655  A
N513       O2082   1.262       .  A
O516       N2079   1.262       .  A
C518        C519   1.409       .  A
C518        C523   1.404       .  A
C518       H2091   1.083       .  S
C519        C520   1.420       .  A
C520        C521   1.402       .  A
C520        N527   1.429       .  S
C521        C522   1.403       .  A
C521        H526   1.084       .  S
C522        C523   1.414       .  A
C523       N2090   1.429       .  S
N524       C2089   1.429       .  S
N524        O528   1.262       .  A
N524        O529   1.262       .  A
H525       C2084   1.083       .  S
N527        O531   1.262       .  A
N527        O530   1.262       .  A
C532        C533   1.402       .  A
C532        C537   1.395       .  A
C532        H539   1.085       .  S
C533        C534   1.408       .  A
C534        C535   1.401       .  A
C534        N541   1.430       .  S
C535        C536   1.407       .  A
C535        H540   1.084       .  S
C536        C537   1.413       .  A
C537        N538   1.432       .  S
N538        O542   1.262       .  A
N538        O543   1.262       .  A
N541        O545   1.262       .  A
N541        O544   1.262       .  A
C546        C547   1.405       .  A
C546        C551   1.396       .  A
C546        H553   1.085       .  S
C547        C548   1.406       .  A
C548        C549   1.404       .  A
C548        N555   1.428       .  S
C549        C550   1.410       .  A
C549        H554   1.084       .  S
C550        C551   1.411       .  A
C551        N552   1.429       .  S
N552        O556   1.262       .  A
N552        O557   1.261       .  A
N555        O559   1.262       .  A
N555        O558   1.262       .  A
C560        C561   1.404       .  A
C560        C565   1.403       .  A
C560        H567   1.084       .  S
C561        C562   1.413       .  A
C562        C563   1.399       .  A
C562        N569   1.429       .  S
C563        C564   1.405       .  A
C563        H568   1.084       .  S
C564        C565   1.417       .  A
C565        N566   1.429       .  S
N566        O570   1.262       .  A
N566        O571   1.262       .  A
N569        O573   1.262       .  A
N569        O572   1.262       .  A
C574        C575   1.409       .  A
C574        C579   1.403       .  A
C574        H581   1.083       .  S
C575        C576   1.417       .  A
C576        C577   1.397       .  A
C576        N583   1.429       .  S
C577        C578   1.401       .  A
C577        H582   1.084       .  S
C578        C579   1.409       .  A
C579        N580   1.429       .  S
N580        O584   1.262       .  A
N580        O585   1.262       .  A
N583        O587   1.262       .  A
N583        O586   1.262       .  A
C588        C589   1.402   1_545  A
C588        C593   1.404       .  A
C588        H595   1.084       .  S
C589        C590   1.412       .  A
C590        C591   1.405       .  A
C590        N597   1.431       .  S
C591        C592   1.407       .  A
C591        H596   1.084       .  S
C592        C593   1.416   1_565  A
C593       N1377   1.428       .  S
N594       C1376   1.429       .  S
N594       O1381   1.262       .  A
N594        O599   1.262       .  A
N597        O601   1.262       .  A
N597        O600   1.262       .  A
O598       N1377   1.261       .  A
C602        C603   1.403       .  A
C602        C607   1.405       .  A
C602        H609   1.083       .  S
C603        C604   1.411       .  A
C604        C605   1.410       .  A
C604        N611   1.429       .  S
C605        C606   1.405       .  A
C605        H610   1.082       .  S
C606        C607   1.410       .  A
C607        N608   1.428       .  S
N608        O612   1.261       .  A
N608        O613   1.262       .  A
N611        O615   1.262       .  A
N611        O614   1.262       .  A
C616        C617   1.404       .  A
C616        C621   1.405       .  A
C616        H623   1.084       .  S
C617        C618   1.411       .  A
C618        C619   1.401       .  A
C618        N625   1.429       .  S
C619        C620   1.408       .  A
C619        H624   1.083       .  S
C620        C621   1.417       .  A
C621        N622   1.429       .  S
N622        O626   1.262       .  A
N622        O627   1.262       .  A
N625        O629   1.262       .  A
N625        O628   1.262       .  A
C630        C631   1.399       .  A
C630        C635   1.403       .  A
C630        H637   1.084       .  S
C631        C632   1.413       .  A
C632        C633   1.395       .  A
C632        N639   1.432       .  S
C633        C634   1.402       .  A
C633        H638   1.084       .  S
C634        C635   1.420       .  A
C635        N636   1.429       .  S
N636        O640   1.262       .  A
N636        O641   1.262       .  A
N639        O643   1.262       .  A
N639        O642   1.262       .  A
C644        C645   1.402       .  A
C644        C649   1.404       .  A
C644        H651   1.084       .  S
C645        C646   1.410       .  A
C646        C647   1.398       .  A
C646        N653   1.430       .  S
C647        C648   1.404       .  A
C647        H652   1.084       .  S
C648        C649   1.413       .  A
C649        N650   1.438       .  S
N650        O654   1.262       .  A
N650        O655   1.263       .  A
N653        O657   1.262       .  A
N653        O656   1.262       .  A
C658        C663   1.399       .  A
C658       C1442   1.398       .  A
C658        H665   1.084       .  S
C659        C660   1.412       .  A
C659       C1441   1.399       .  A
C660        C661   1.414       .  A
C660        N667   1.433   1_565  S
C661        C662   1.407       .  A
C661        H666   1.084   1_565  S
C662       C1446   1.412       .  A
C663       C1445   1.412       .  A
C663        N664   1.432       .  S
N664        O668   1.262       .  A
N664        O669   1.263       .  A
N667        O671   1.262       .  A
N667        O670   1.263   1_545  A
C672        C677   1.404       .  A
C672       C1456   1.408       .  A
C672        H679   1.083       .  S
C673        C674   1.419       .  A
C673       C1455   1.407   1_545  A
C674        C675   1.399       .  A
C674        N681   1.429       .  S
C675        C676   1.402       .  A
C675        H680   1.084       .  S
C676       C1460   1.413   1_545  A
C677       C1459   1.413       .  A
C677        N678   1.429       .  S
N678        O682   1.262       .  A
N678        O683   1.262       .  A
N681        O685   1.262       .  A
N681        O684   1.262       .  A
C686        C687   1.400       .  A
C686        C691   1.398       .  A
C686        H693   1.080       .  S
C687        C688   1.404       .  A
C688        C689   1.396       .  A
C688        N695   1.430       .  S
C689        C690   1.403       .  A
C689        H694   1.085       .  S
C690        C691   1.405       .  A
C691        N692   1.429       .  S
N692        O696   1.262       .  A
N692        O697   1.262       .  A
N695        O699   1.262       .  A
N695        O698   1.262       .  A
C700       C2267   1.403       .  A
C700       C2271   1.397       .  A
C700        H707   1.085       .  S
C701       C1577   1.463       .  S
C701        C702   1.406       .  A
C701       C2266   1.404       .  A
C702        C703   1.402       .  A
C702        N709   1.429       .  S
C703        C704   1.405       .  A
C703        H708   1.084       .  S
C704        C705   1.408       .  A
C705       C2266   1.398       .  A
C705        N706   1.430       .  S
N706       O2276   1.262       .  A
N706        O711   1.262       .  A
N709        O713   1.262       .  A
N709        O712   1.262       .  A
O710       N2272   1.262       .  A
C714        C715   1.404       .  A
C714        C719   1.405       .  A
C714        H721   1.084       .  S
C715        C716   1.402       .  A
C716        C717   1.395       .  A
C716        N723   1.429       .  S
C717        C718   1.406       .  A
C717        H722   1.085       .  S
C718        C719   1.410       .  A
C719        N720   1.429       .  S
N720        O724   1.262       .  A
N720        O725   1.262       .  A
N723        O727   1.262       .  A
N723        O726   1.262       .  A
C728        C729   1.407       .  A
C728        C733   1.398       .  A
C728        H735   1.083   1_455  S
C729        C730   1.418       .  A
C730        C731   1.407       .  A
C730        N737   1.428       .  S
C731        C732   1.407       .  A
C731        H736   1.083       .  S
C732        C733   1.416       .  A
C733        N734   1.430   1_455  S
N734        O738   1.262       .  A
N734        O739   1.262       .  A
N737        O741   1.262       .  A
N737        O740   1.262       .  A
C742        C743   1.404       .  A
C742        C747   1.397       .  A
C742        H749   1.084       .  S
C743        C744   1.409       .  A
C744        C745   1.405       .  A
C744        N751   1.429       .  S
C745        C746   1.406       .  A
C745        H750   1.083       .  S
C746        C747   1.405       .  A
C747        N748   1.427       .  S
N748        O752   1.261       .  A
N748        O753   1.262       .  A
N751        O755   1.262       .  A
N751        O754   1.262       .  A
C756        C761   1.404       .  A
C756       C2323   1.402       .  A
C756        H763   1.084       .  S
C757        C758   1.418       .  A
C757       C2322   1.403   1_455  A
C758       C2325   1.394   1_455  A
C758        N765   1.433       .  S
C759        C760   1.396       .  A
C759       C2324   1.396       .  A
C759        H764   1.084       .  S
C760        C761   1.411       .  A
C761        N762   1.429       .  S
N762        O766   1.262       .  A
N762        O767   1.262       .  A
N765        O769   1.262       .  A
N765        O768   1.262       .  A
C770        C771   1.404       .  A
C770        C775   1.403       .  A
C770        H777   1.084       .  S
C771        C772   1.412       .  A
C772        C773   1.408       .  A
C772       N2345   1.429       .  S
C773        C774   1.408       .  A
C773        H778   1.084       .  S
C774        C775   1.414       .  A
C775        N776   1.430       .  S
N776        O780   1.262       .  A
N776        O781   1.262       .  A
N779       C2338   1.429       .  S
N779       O2349   1.262       .  A
N779        O782   1.262       .  A
O783       N2345   1.262   1_655  A
C784        N785   1.372       .  A
C784        N789   1.368       .  A
C784       C1557   1.499       .  S
N785        C786   1.362       .  A
C786        N787   1.343       .  A
C786       C1540   1.474       .  S
N787        C788   1.341       .  A
C788        N789   1.357       .  A
C788       C1526   1.467       .  S
C790        N791   1.372       .  A
C790        N795   1.371       .  A
C790       C1512   1.494       .  S
N791        C792   1.361       .  A
C792        N793   1.341       .  A
C792       C1501   1.465       .  S
N793        C794   1.340       .  A
C794        N795   1.357       .  A
C794       C3050   1.464   1_455  S
C796        C819   1.505       .  S
C796        C797   1.417       .  A
C796        C801   1.417       .  A
C797        C798   1.411       .  A
C797        H802   1.083       .  S
C798        C841   1.510       .  S
C798        C799   1.420       .  A
C799        C800   1.417       .  A
C799        H803   1.083       .  S
C800       C2429   1.515       .  S
C800        C801   1.416       .  A
C801        H804   1.083   1_565  S
O805       Cr823   2.004       .  S
O805        C813   1.261       .  A
O806       Cr823   1.975       .  S
O806        C807   1.261       .  A
C807       C1428   1.478       .  S
C807        O808   1.271       .  A
O808       Cr824   2.030       .  S
O809       Cr824   1.972       .  S
O809        C810   1.263       .  A
C810       C1459   1.484       .  S
C810        O811   1.267       .  A
O812       Cr825   2.006       .  S
C813       C1445   1.485       .  S
O814        C822   1.256   1_545  A
O815       Cr823   1.996       .  S
O815        C816   1.260       .  A
C816       C1543   1.468       .  S
C816        O817   1.263       .  A
O817       Cr824   1.981       .  S
O818       Cr824   2.035       .  S
C819        O820   1.264       .  A
O820       Cr825   1.992       .  S
O821       Cr825   2.019       .  S
O821        C822   1.271       .  A
C822       C1470   1.456       .  S
Cr823       O826   1.777       .  S
Cr824       O826   1.775       .  S
O827       Cr845   1.975       .  S
O827        C835   1.256       .  A
O828       Cr845   1.984       .  S
O828        C829   1.258       .  A
C829       C1386   1.481       .  S
C829        O830   1.263       .  A
O830       Cr846   2.009       .  S
O831       Cr846   2.019       .  S
O831        C832   1.275       .  A
C832       C1400   1.482       .  S
C832        O833   1.266       .  A
O833       Cr847   1.970       .  S
O834       Cr847   2.026       .  S
O834        C835   1.266       .  A
C835       C1431   1.478       .  S
O836       Cr845   2.001       .  S
O836        C844   1.263       .  A
O837       Cr845   1.956       .  S
O837        C838   1.255       .  A
C838       C1417   1.486       .  S
C838        O839   1.274       .  A
O839       Cr846   2.024       .  S
O840       Cr846   2.025       .  S
O840        C841   1.269       .  A
C841        O842   1.262       .  A
O842       Cr847   2.006       .  S
O843       Cr847   1.973       .  S
O843        C844   1.262       .  A
C844       C1487   1.473       .  S
Cr845       O848   1.773       .  S
Cr846       O848   1.774       .  S
Cr847       O848   1.778       .  S
O849       Cr867   1.992       .  S
O849        C857   1.257       .  A
O850       Cr867   1.969       .  S
O850        C851   1.255       .  A
C851       C1442   1.474       .  S
O852       Cr868   2.036       .  S
O853       Cr868   1.973       .  S
C854       C1372   1.490       .  S
C854        O855   1.272       .  A
O855       Cr869   2.017       .  S
O856       Cr869   2.013       .  S
O856        C857   1.262       .  A
C857       C1389   1.489       .  S
O858       Cr867   1.955       .  S
O858        C866   1.257       .  A
O859        C860   1.259       .  A
C860       C1498   1.467       .  S
C860        O861   1.265       .  A
O861       Cr868   1.990       .  S
O862       Cr868   2.031       .  S
O862        C863   1.269       .  A
C863       C2366   1.519   1_455  S
O864       Cr869   2.010       .  S
O865       Cr869   2.026       .  S
O865        C866   1.275       .  A
C866       C1529   1.473       .  S
Cr867       O870   1.775       .  S
Cr869       O870   1.781       .  S
C871        N872   1.370       .  A
C871        N876   1.363       .  A
C871       C1361   1.488       .  S
N872        C873   1.364       .  A
C873        N874   1.347       .  A
C873       C1414   1.471       .  S
N874        C875   1.343       .  A
C875        N876   1.350       .  A
C875       C1473   1.454       .  S
C877        N878   1.371       .  A
C877        N882   1.367       .  A
C877       C1344   1.499       .  S
N878        C879   1.362       .  A
C879        N880   1.342       .  A
C879       C1330   1.471       .  S
N880        C881   1.342       .  A
C881        N882   1.358       .  A
C881       C1316   1.463       .  S
C883        N884   1.366       .  A
C883        N888   1.374       .  A
C883       C1302   1.494       .  S
N884        C885   1.352       .  A
C885        N886   1.340       .  A
C885       C1288   1.458       .  S
N886        C887   1.344       .  A
C887        N888   1.364       .  A
C887       C1274   1.472       .  S
C889        C912   1.507       .  S
C889        C890   1.421       .  A
C889        C894   1.414       .  A
C890        C891   1.418       .  A
C890        H895   1.083       .  S
C891        C934   1.515       .  S
C891        C892   1.414       .  A
C892        C893   1.419       .  A
C892        H896   1.083       .  S
C893        C956   1.504       .  S
C893        C894   1.410       .  A
C894        H897   1.083       .  S
O898      Cr2482   1.949       .  S
O898        C906   1.253       .  A
O899       Cr916   1.991       .  S
O899        C900   1.258       .  A
C900       C1260   1.477       .  S
C900        O901   1.260       .  A
O901       Cr917   2.005       .  S
O902       Cr917   2.017       .  S
O902        C903   1.270       .  A
C903       C1515   1.495       .  S
C903        O904   1.260       .  A
O904       Cr918   1.973       .  S
O905      Cr2484   2.023       .  S
O905        C906   1.266       .  A
C906       C1249   1.459       .  S
O907       Cr916   1.984       .  S
O907        C915   1.257       .  A
O908       Cr916   1.949       .  S
O908        C909   1.255       .  A
C909       C1333   1.483       .  S
C909        O910   1.275       .  A
O910       Cr917   2.038       .  S
O911       Cr917   2.001       .  S
O911        C912   1.267       .  A
C912        O913   1.270       .  A
O913       Cr918   2.026       .  S
O914       Cr918   1.983       .  S
O914        C915   1.262       .  A
C915       C2857   1.457       .  S
Cr916      O2464   1.951       .  S
Cr916       O919   1.767       .  S
Cr917       O919   1.772       .  S
Cr918      O2471   2.028   1_455  S
Cr918       O919   1.776       .  S
O920       Cr938   1.971       .  S
O920        C928   1.263       .  A
O921      Cr2504   1.987       .  S
O921        C922   1.256       .  A
C922       C1221   1.487       .  S
C922        O923   1.261       .  A
O923      Cr2505   2.013       .  S
O924       Cr939   2.016       .  S
O924        C925   1.269       .  A
C925       C1554   1.495       .  S
C925        O926   1.261       .  A
O926       Cr940   1.967       .  S
O927       Cr940   2.042       .  S
O927        C928   1.272       .  A
C928       C1263   1.495       .  S
O929       Cr938   1.986       .  S
O929        C937   1.256       .  A
O930       Cr938   1.970       .  S
O930        C931   1.261       .  A
C931       C2843   1.487       .  S
C931        O932   1.276       .  A
O932       Cr939   2.025       .  S
O933       Cr939   2.004       .  S
O933        C934   1.265       .  A
C934        O935   1.272       .  A
O935       Cr940   2.036       .  S
O936       Cr940   1.975       .  S
O936        C937   1.260       .  A
C937       C1232   1.462       .  S
Cr938      O2487   1.988   1_455  S
Cr938       O941   1.776       .  S
Cr939      O2489   2.012   1_455  S
Cr939       O941   1.779       .  S
Cr940       O941   1.777       .  S
O942       Cr960   1.980       .  S
O942        C950   1.255       .  A
O943       Cr960   1.949       .  S
O943        C944   1.252       .  A
C944       C1246   1.454       .  S
C944        O945   1.265       .  A
O945       Cr961   2.019       .  S
O946       Cr961   1.975       .  S
O946        C947   1.264       .  A
C947       C1358   1.490       .  S
C947        O948   1.271       .  A
O948       Cr962   2.011       .  S
O949       Cr962   2.014       .  S
O949        C950   1.261       .  A
C950       C1218   1.481       .  S
O951       Cr960   1.947       .  S
O951        C959   1.256       .  A
O952       Cr960   1.991       .  S
O952        C953   1.258       .  A
C953       C1204   1.469       .  S
C953        O954   1.265       .  A
O954       Cr961   2.000       .  S
O955       Cr961   2.003       .  S
O955        C956   1.264       .  A
C956        O957   1.270       .  A
O957       Cr962   2.015       .  S
O958       Cr962   2.036       .  S
O958        C959   1.277       .  A
C959       C1319   1.474       .  S
Cr960       O963   1.765       .  S
Cr961       O963   1.774       .  S
Cr962       O963   1.770       .  S
C964        N965   1.368       .  A
C964        N969   1.370       .  A
C964       C1190   1.478       .  S
N965        C966   1.355       .  A
C966        N967   1.339       .  A
C966       C1207   1.460       .  S
N967        C968   1.344       .  A
C968        N969   1.361       .  A
C968       C1235   1.477       .  S
C970        N975   1.364       .  A
C970       C1456   1.495       .  S
N971        C972   1.359       .  A
C972       C1162   1.463   1_556  S
N973        C974   1.343   1_554  A
C974        N975   1.352       .  A
C974       C1176   1.458   1_556  S
C976        N977   1.369       .  A
C976        N981   1.369       .  A
C976       C1403   1.488       .  S
N977        C978   1.357   1_556  A
C978        N979   1.341       .  A
C978       C1137   1.462       .  S
N979        C980   1.342       .  A
C980        N981   1.358   1_554  A
C980       C1151   1.464       .  S
C982       C1049   1.513       .  S
C982        C983   1.414       .  A
C982        C987   1.424       .  A
C983        C984   1.416       .  A
C983        H988   1.083       .  S
C984       C1005   1.505       .  S
C984        C985   1.411       .  A
C985        C986   1.415       .  A
C985        H989   1.083       .  S
C986        C987   1.421       .  A
C987        H990   1.083       .  S
O991      Cr1009   1.958   1_455  S
O991        C999   1.260       .  A
O992      Cr1009   1.995   1_455  S
O992        C993   1.258       .  A
C993       C1109   1.486       .  S
C993        O994   1.262   1_455  A
O994      Cr2576   2.012       .  S
O995      Cr1010   2.016       .  S
O995        C996   1.270       .  A
C996       C1305   1.493       .  S
C996        O997   1.263       .  A
O997      Cr1011   1.966       .  S
O998      Cr2577   2.034       .  S
O998        C999   1.271   1_655  A
C999       C1120   1.485       .  S
O1000     Cr2575   1.996       .  S
O1000      C1008   1.256       .  A
O1001     Cr2575   1.956       .  S
O1001      C1002   1.259       .  A
C1002      C1179   1.475       .  S
C1002      O1003   1.274       .  A
O1003     Cr1010   2.025       .  S
O1004     Cr1010   2.009       .  S
O1004      C1005   1.267       .  A
C1005      O1006   1.266       .  A
O1006     Cr1011   2.012       .  S
O1007     Cr1011   1.980       .  S
O1007      C1008   1.260       .  A
C1008      C1148   1.475       .  S
Cr1009     O2566   2.001       .  S
Cr1009     O2567   1.950       .  S
Cr1009     O2578   1.772       .  S
Cr1010     O2560   2.013       .  S
Cr1010     O1012   1.773       .  S
Cr1011     O2564   2.029       .  S
Cr1011     O1012   1.772       .  S
O1012     Cr2575   1.770       .  S
O1013     Cr1031   1.973       .  S
O1013      C1021   1.260       .  A
O1014     Cr1031   1.986       .  S
O1014      C1015   1.258       .  A
C1015      C1123   1.476       .  S
C1015      O1016   1.259       .  A
O1016     Cr1032   1.997       .  S
O1017     Cr1032   2.017       .  S
O1017      C1018   1.272       .  A
C1018      C1347   1.489       .  S
C1018      O1019   1.266       .  A
O1019     Cr1033   1.977       .  S
O1020     Cr1033   2.043       .  S
O1020      C1021   1.271       .  A
C1021      C1078   1.495       .  S
O1022     Cr1031   2.001       .  S
O1022      C1030   1.259       .  A
O1023     Cr1031   1.966       .  S
O1023      C1024   1.260       .  A
C1024      C1092   1.480       .  S
C1024      O1025   1.275       .  A
O1025     Cr1032   2.026       .  S
O1026     Cr1032   2.014       .  S
O1026      C1027   1.265   1_565  A
C1027      O1028   1.267       .  A
O1028     Cr1033   2.018   1_545  S
O1029     Cr1033   1.991       .  S
O1029      C1030   1.263       .  A
C1030      C1165   1.481       .  S
Cr1031     O1034   1.778       .  S
Cr1032     O1034   1.782       .  S
Cr1033     O1034   1.776       .  S
O1035     Cr1053   1.985       .  S
O1035      C1043   1.256       .  A
O1036     Cr1053   1.985       .  S
O1036      C1037   1.259       .  A
C1037      C1081   1.480       .  S
C1037      O1038   1.264       .  A
O1038     Cr1054   2.008       .  S
O1039     Cr1054   2.005       .  S
O1039      C1040   1.270       .  A
C1040      C1193   1.484       .  S
C1040      O1041   1.267       .  A
O1041     Cr1055   1.971       .  S
O1042     Cr1055   2.032       .  S
O1042      C1043   1.267       .  A
C1043      C1106   1.485       .  S
O1044     Cr1053   2.008       .  S
O1044      C1052   1.264       .  A
O1045     Cr1053   1.965       .  S
O1045      C1046   1.258       .  A
C1046      C1134   1.479       .  S
C1046      O1047   1.269       .  A
O1047     Cr1054   2.013       .  S
O1048     Cr1054   2.020       .  S
O1048      C1049   1.269       .  A
C1049      O1050   1.265       .  A
O1050     Cr1055   2.021       .  S
O1051     Cr1055   1.967       .  S
O1051      C1052   1.263       .  A
C1052      C1064   1.470       .  S
Cr1053     O1056   1.779       .  S
Cr1054     O1056   1.778       .  S
Cr1055     O1056   1.777       .  S
C1057      N1062   1.366       .  A
C1057      C1375   1.493       .  S
N1058      C1059   1.361   1_556  A
C1059      C1095   1.470       .  S
N1060      C1061   1.344       .  A
C1061      N1062   1.356   1_554  A
C1061      C1067   1.461       .  S
C1063      C1064   1.399       .  A
C1063      C1068   1.390       .  A
C1063      H1070   1.085       .  S
C1064      C1065   1.413       .  A
C1065      C1066   1.404       .  A
C1065      N1072   1.429       .  S
C1066      C1067   1.401       .  A
C1066      H1071   1.084       .  S
C1067      C1068   1.409       .  A
C1068      N1069   1.431       .  S
N1069      O1073   1.261       .  A
N1069      O1074   1.262       .  A
N1072      O1076   1.262       .  A
N1072      O1075   1.262       .  A
C1077      C1078   1.402       .  A
C1077      C1082   1.400       .  A
C1077      H1084   1.076       .  S
C1078      C1079   1.414       .  A
C1079      C1080   1.412       .  A
C1079      N1086   1.427       .  S
C1080      C1081   1.405       .  A
C1080      H1085   1.082       .  S
C1081      C1082   1.405       .  A
C1082      N1083   1.429       .  S
N1083      O1087   1.262       .  A
N1083      O1088   1.262       .  A
N1086      O1090   1.260       .  A
N1086      O1089   1.262       .  A
C1091      C1092   1.407       .  A
C1091      C1096   1.405       .  A
C1091      H1098   1.084       .  S
C1092      C1093   1.408       .  A
C1093      C1094   1.397       .  A
C1093      N1100   1.430       .  S
C1094      C1095   1.404       .  A
C1094      H1099   1.085       .  S
C1095      C1096   1.409       .  A
C1096      N1097   1.430   1_554  S
N1097      O1101   1.262   1_565  A
N1097      O1102   1.262       .  A
N1100      O1104   1.262       .  A
N1100      O1103   1.262       .  A
C1105      C1106   1.400       .  A
C1105      C1110   1.400       .  A
C1105      H1112   1.083       .  S
C1106      C1107   1.417       .  A
C1107      C1108   1.416       .  A
C1107      N1114   1.438       .  S
C1108      C1109   1.406       .  A
C1108      H1113   1.083       .  S
C1109      C1110   1.412       .  A
C1110      N1111   1.430       .  S
N1111      O1115   1.262       .  A
N1111      O1116   1.262       .  A
N1114      O1118   1.263       .  A
N1114      O1117   1.263       .  A
C1119      C1120   1.402       .  A
C1119      C1124   1.393       .  A
C1119      H1126   1.084       .  S
C1120      C1121   1.415       .  A
C1121      C1122   1.410       .  A
C1121      N1128   1.428       .  S
C1122      C1123   1.404       .  A
C1122      H1127   1.084       .  S
C1123      C1124   1.405       .  A
C1124      N1125   1.424       .  S
N1125      O1129   1.262       .  A
N1125      O1130   1.262       .  A
N1128      O1132   1.262       .  A
N1128      O1131   1.262       .  A
C1133      C1134   1.407       .  A
C1133      C1138   1.402       .  A
C1133      H1140   1.084       .  S
C1134      C1135   1.412       .  A
C1135      C1136   1.397       .  A
C1135      N1142   1.430       .  S
C1136      C1137   1.401       .  A
C1136      H1141   1.085       .  S
C1137      C1138   1.407       .  A
C1138      N1139   1.430   1_554  S
N1139      O1143   1.262       .  A
N1139      O1144   1.262       .  A
N1142      O1146   1.262       .  A
N1142      O1145   1.262       .  A
C1147      C1148   1.398       .  A
C1147      C1152   1.391       .  A
C1147      H1154   1.084       .  S
C1148      C1149   1.417       .  A
C1149      C1150   1.406       .  A
C1149      N1156   1.431       .  S
C1150      C1151   1.400       .  A
C1150      H1155   1.084       .  S
C1151      C1152   1.411       .  A
C1152      N1153   1.433       .  S
N1153      O1157   1.262       .  A
N1153      O1158   1.263       .  A
N1156      O2726   1.262       .  A
N1156      O2725   1.262       .  A
O1159      N2722   1.262   1_455  A
O1160      N2722   1.262   1_455  A
C1161      C1162   1.398       .  A
C1161      C1166   1.407       .  A
C1161      H1168   1.084       .  S
C1162      C1163   1.407       .  A
C1163      C1164   1.396       .  A
C1164      C1165   1.403       .  A
C1164      H1169   1.084       .  S
C1165      C1166   1.420       .  A
C1166      N1167   1.434       .  S
N1167      O1171   1.262       .  A
N1167      O1172   1.263       .  A
N1170      O1174   1.262       .  A
N1170      O1173   1.262   1_554  A
C1175      C1176   1.398       .  A
C1175      C1180   1.398       .  A
C1175      H1182   1.085   1_554  S
C1176      C1177   1.408       .  A
C1177      C1178   1.399       .  A
C1177      N1184   1.435       .  S
C1178      C1179   1.402       .  A
C1178      H1183   1.083       .  S
C1179      C1180   1.413       .  A
C1180      N1181   1.428       .  S
N1181      O2751   1.262       .  A
N1181      O1186   1.261       .  A
N1184      O1188   1.262       .  A
N1184      O1187   1.263       .  A
O1185      N2747   1.262       .  A
C1189      C1190   1.402       .  A
C1189      C1194   1.399       .  A
C1189      H1196   1.084       .  S
C1190      C1191   1.410       .  A
C1191      C1192   1.397       .  A
C1191      N1198   1.426       .  S
C1192      C1193   1.403       .  A
C1192      H1197   1.084       .  S
C1193      C1194   1.416       .  A
C1194      N1195   1.430       .  S
N1195      O1199   1.262       .  A
N1195      O1200   1.262       .  A
N1198      O1202   1.262       .  A
N1198      O1201   1.262       .  A
C1203      C1204   1.400       .  A
C1203      C1208   1.402       .  A
C1203      H1210   1.084       .  S
C1204      C1205   1.410       .  A
C1205      C1206   1.401       .  A
C1205      N1212   1.430       .  S
C1206      C1207   1.403       .  A
C1206      H1211   1.084       .  S
C1207      C1208   1.410       .  A
C1208      N1209   1.433       .  S
N1209      O1213   1.262       .  A
N1209      O1214   1.262       .  A
N1212      O1216   1.262       .  A
N1212      O1215   1.262       .  A
C1217      C1218   1.407       .  A
C1217      H1224   1.084       .  S
C1218      C1219   1.412       .  A
C1219      C1220   1.395       .  A
C1219      N1226   1.429       .  S
C1220      H1225   1.084       .  S
C1221      C1222   1.412       .  A
C1222      N1223   1.431       .  S
N1223      O1227   1.262       .  A
N1223      O1228   1.262       .  A
N1226      O1230   1.262       .  A
N1226      O1229   1.262       .  A
C1231      C1232   1.403       .  A
C1231      C1236   1.400       .  A
C1231      H1238   1.084       .  S
C1232      C1233   1.404       .  A
C1233      C1234   1.392       .  A
C1233      N1240   1.435       .  S
C1234      C1235   1.409       .  A
C1234      H1239   1.084       .  S
C1235      C1236   1.410       .  A
C1236      N1237   1.426       .  S
N1237      O1241   1.262       .  A
N1237      O1242   1.261       .  A
N1240      O1244   1.263       .  A
N1240      O1243   1.261       .  A
C1245      C1246   1.395       .  A
C1245      C1250   1.382       .  A
C1245      H1252   1.085       .  S
C1246      C1247   1.406       .  A
C1247      C1248   1.406       .  A
C1247      N1254   1.428       .  S
C1248      C1249   1.404       .  A
C1248      H1253   1.082       .  S
C1249      C1250   1.407       .  A
C1250      N1251   1.431       .  S
N1251      O1255   1.262       .  A
N1251      O1256   1.262       .  A
N1254      O1258   1.262       .  A
N1254      O1257   1.261       .  A
C1259      C1260   1.399       .  A
C1259      C1264   1.405   1_565  A
C1259      H1266   1.084       .  S
C1260      C1261   1.410       .  A
C1261      C1262   1.404       .  A
C1261      N1268   1.432       .  S
C1262      H1267   1.084       .  S
N1265      O1269   1.262       .  A
N1265      O1270   1.262       .  A
N1268      O1272   1.262   1_455  A
N1268      O1271   1.262       .  A
C1273      C1274   1.402       .  A
C1273      C2844   1.408       .  A
C1273      H2846   1.084       .  S
C1274      C1275   1.411       .  A
C1275      C1276   1.394       .  A
C1275      N1282   1.431       .  S
C1276      C1277   1.400       .  A
C1276      H1281   1.083       .  S
C1277      C2497   1.485       .  S
C1277      C2844   1.418       .  A
C1278      C2839   1.409   1_455  A
C1278      C2843   1.420       .  A
C1278      N1279   1.431       .  S
N1279      O1283   1.262       .  A
N1279      O1284   1.262       .  A
H1280      C2839   1.084   1_455  S
N1282      O1286   1.262       .  A
N1282      O1285   1.262       .  A
C1287      C1288   1.403       .  A
C1287      C1292   1.395       .  A
C1287      H1294   1.084       .  S
C1288      C1289   1.408       .  A
C1289      C2856   1.399       .  A
C1289      N2862   1.429       .  S
C1290      C2855   1.401       .  A
C1290      C2857   1.401       .  A
C1290      H1295   1.084       .  S
C1291      C2481   1.457       .  S
C1291      C2856   1.400       .  A
C1291      C1292   1.403       .  A
C1292      N1293   1.429       .  S
N1293      O1297   1.262       .  A
N1293      O1298   1.262       .  A
N1296      C2855   1.429       .  S
N1296      O1300   1.262       .  A
N1296      O2865   1.262       .  A
O1299      N2862   1.262       .  A
C1301      C1302   1.408       .  A
C1301      C1306   1.407       .  A
C1301      H2874   1.083       .  S
C1302      C1303   1.417       .  A
C1303      C1304   1.396       .  A
C1303      N1310   1.429       .  S
C1304      C1305   1.405       .  A
C1304      H1309   1.084       .  S
C1305      C1306   1.415       .  A
C1306      N2873   1.428       .  S
N1307      C2872   1.429       .  S
N1307      O1311   1.262       .  A
N1307      O1312   1.262       .  A
H1308      C2867   1.084       .  S
N1310      O1314   1.262       .  A
N1310      O1313   1.262       .  A
C1315      C1316   1.404       .  A
C1315      C1320   1.397       .  A
C1315      H1322   1.084       .  S
C1316      C1317   1.408       .  A
C1317      C1318   1.400       .  A
C1317      N1324   1.430       .  S
C1318      C1319   1.406       .  A
C1318      H1323   1.084       .  S
C1319      C1320   1.408       .  A
C1320      N1321   1.430       .  S
N1321      O1325   1.262       .  A
N1321      O1326   1.262       .  A
N1324      O1328   1.262       .  A
N1324      O1327   1.262       .  A
C1329      C1330   1.407       .  A
C1329      C1334   1.399       .  A
C1329      H1336   1.084       .  S
C1330      C1331   1.407       .  A
C1331      C1332   1.401       .  A
C1331      N1338   1.429       .  S
C1332      C1333   1.410       .  A
C1332      H1337   1.084       .  S
C1333      C1334   1.409       .  A
C1334      N1335   1.429       .  S
N1335      O1339   1.262       .  A
N1335      O1340   1.262       .  A
N1338      O1342   1.261       .  A
N1338      O1341   1.262       .  A
C1343      C1344   1.408       .  A
C1343      C1348   1.404       .  A
C1343      H1350   1.083       .  S
C1344      C1345   1.419       .  A
C1345      C1346   1.402       .  A
C1345      N1352   1.430       .  S
C1346      C1347   1.404       .  A
C1346      H1351   1.084       .  S
C1347      C1348   1.413       .  A
C1348      N1349   1.429       .  S
N1349      O1353   1.262       .  A
N1349      O1354   1.262       .  A
N1352      O1356   1.262   1_565  A
N1352      O1355   1.262       .  A
C1357      C1358   1.410       .  A
C1357      C1362   1.404       .  A
C1357      H1364   1.084       .  S
C1358      C1359   1.414       .  A
C1359      C1360   1.397       .  A
C1359      N1366   1.430       .  S
C1360      C1361   1.406       .  A
C1360      H1365   1.084       .  S
C1361      C1362   1.412       .  A
C1362      N1363   1.429       .  S
N1363      O1367   1.262       .  A
N1363      O1368   1.262       .  A
N1366      O1370   1.262       .  A
N1366      O1369   1.262       .  A
C1371      C1372   1.404       .  A
C1371      C1376   1.402       .  A
C1371      H1378   1.084       .  S
C1372      C1373   1.416       .  A
C1373      C1374   1.401       .  A
C1373      N1380   1.430       .  S
C1374      C1375   1.405       .  A
C1374      H1379   1.083       .  S
C1375      C1376   1.417       .  A
N1377      O1382   1.262       .  A
N1380      O1384   1.262       .  A
N1380      O1383   1.262       .  A
C1385      C1386   1.399       .  A
C1385      C1390   1.401       .  A
C1385      H1392   1.084       .  S
C1386      C1387   1.410       .  A
C1387      C1388   1.412       .  A
C1387      N1394   1.428       .  S
C1388      C1389   1.408       .  A
C1388      H1393   1.083       .  S
C1389      C1390   1.413       .  A
C1390      N1391   1.428       .  S
N1391      O1395   1.261       .  A
N1391      O1396   1.262       .  A
N1394      O1398   1.262       .  A
N1394      O1397   1.262       .  A
C1399      C1400   1.405       .  A
C1399      C1404   1.402       .  A
C1399      H1406   1.084       .  S
C1400      C1401   1.411       .  A
C1401      C1402   1.400       .  A
C1401      N1408   1.429       .  S
C1402      C1403   1.406       .  A
C1402      H1407   1.084       .  S
C1403      C1404   1.414       .  A
C1404      N1405   1.429       .  S
N1405      O1409   1.262       .  A
N1405      O1410   1.262       .  A
N1408      O1412   1.262       .  A
N1408      O1411   1.262       .  A
C1413      C1414   1.399       .  A
C1413      C1418   1.404       .  A
C1413      H1420   1.084       .  S
C1414      C1415   1.411       .  A
C1415      C1416   1.397       .  A
C1415      N1422   1.430       .  S
C1416      C1417   1.402       .  A
C1416      H1421   1.084       .  S
C1417      C1418   1.422       .  A
C1418      N1419   1.432       .  S
N1419      O1423   1.262       .  A
N1419      O1424   1.262       .  A
N1422      O1426   1.262       .  A
N1422      O1425   1.262       .  A
C1427      C1428   1.403       .  A
C1427      C1432   1.408       .  A
C1427      H1434   1.084       .  S
C1428      C1429   1.412       .  A
C1429      C1430   1.401       .  A
C1429      N1436   1.430       .  S
C1430      C1431   1.402       .  A
C1430      H1435   1.084       .  S
C1431      C1432   1.413       .  A
C1432      N1433   1.437       .  S
N1433      O1437   1.262       .  A
N1433      O1438   1.263       .  A
N1436      O1440   1.262       .  A
N1436      O1439   1.262       .  A
C1441      C1446   1.398       .  A
C1441      H1448   1.084       .  S
C1442      C1443   1.410       .  A
C1443      C1444   1.411       .  A
C1443      N1450   1.430       .  S
C1444      C1445   1.408       .  A
C1444      H1449   1.084       .  S
C1446      N1447   1.430       .  S
N1447      O1451   1.262       .  A
N1447      O1452   1.262       .  A
N1450      O1454   1.261       .  A
N1450      O1453   1.262       .  A
C1455      C1460   1.400       .  A
C1455      H1462   1.083       .  S
C1456      C1457   1.420       .  A
C1457      C1458   1.397       .  A
C1457      N1464   1.429       .  S
C1458      C1459   1.401       .  A
C1458      H1463   1.084       .  S
C1460      N1461   1.429       .  S
N1461      O1465   1.262       .  A
N1461      O1466   1.262       .  A
N1464      O1468   1.262       .  A
N1464      O1467   1.262       .  A
C1469      C1470   1.400       .  A
C1469      C1474   1.397       .  A
C1469      H1476   1.080       .  S
C1470      C1471   1.404       .  A
C1471      C1472   1.394       .  A
C1471      N1478   1.431       .  S
C1472      C1473   1.402       .  A
C1472      H1477   1.085       .  S
C1473      C1474   1.403       .  A
C1474      N1475   1.428       .  S
N1475      O1479   1.262       .  A
N1475      O1480   1.262       .  A
N1478      O1482   1.262       .  A
N1478      O1481   1.261       .  A
C1483      C3050   1.403       .  A
C1483      C3054   1.395       .  A
C1483      H1490   1.085       .  S
C1484      C2360   1.464       .  S
C1484      C3049   1.403       .  A
C1484      C1485   1.406       .  A
C1485      C1486   1.403       .  A
C1485      N1492   1.428       .  S
C1486      C1487   1.406       .  A
C1486      H1491   1.084       .  S
C1487      C1488   1.410       .  A
C1488      C3049   1.393       .  A
C1488      N1489   1.431       .  S
N1489      O3059   1.262       .  A
N1489      O1494   1.262       .  A
N1492      O1496   1.262       .  A
N1492      O1495   1.262       .  A
O1493      N3055   1.262       .  A
C1497      C1498   1.404       .  A
C1497      C1502   1.404       .  A
C1497      H1504   1.083       .  S
C1498      C1499   1.402       .  A
C1499      C1500   1.397       .  A
C1499      N1506   1.429       .  S
C1500      C1501   1.406       .  A
C1500      H1505   1.085       .  S
C1501      C1502   1.409       .  A
C1502      N1503   1.430       .  S
N1503      O1507   1.262       .  A
N1503      O1508   1.262       .  A
N1506      O1510   1.262       .  A
N1506      O1509   1.262       .  A
C1511      C1512   1.406       .  A
C1511      C1516   1.400       .  A
C1511      H1518   1.084   1_455  S
C1512      C1513   1.415       .  A
C1513      C1514   1.405       .  A
C1513      N1520   1.429       .  S
C1514      C1515   1.407       .  A
C1514      H1519   1.083       .  S
C1515      C1516   1.417       .  A
C1516      N1517   1.430   1_455  S
N1517      O1521   1.262       .  A
N1517      O1522   1.262       .  A
N1520      O1524   1.262       .  A
N1520      O1523   1.262       .  A
C1525      C1526   1.403       .  A
C1525      C1530   1.394       .  A
C1525      H1532   1.084       .  S
C1526      C1527   1.410       .  A
C1527      C1528   1.404       .  A
C1527      N1534   1.431       .  S
C1528      C1529   1.406       .  A
C1528      H1533   1.084       .  S
C1529      C1530   1.406       .  A
C1530      N1531   1.430       .  S
N1531      O1535   1.261       .  A
N1531      O1536   1.262       .  A
N1534      O1538   1.262       .  A
N1534      O1537   1.262       .  A
C1539      C3106   1.403       .  A
C1539      C1544   1.404       .  A
C1539      H1546   1.084       .  S
C1540      C3105   1.402   1_455  A
C1540      C1541   1.416       .  A
C1541      C3108   1.395       .  A
C1541      N1548   1.432       .  S
C1542      C3107   1.395       .  A
C1542      C1543   1.395       .  A
C1542      H1547   1.084       .  S
C1543      C1544   1.412       .  A
C1544      N1545   1.429       .  S
N1545      O1549   1.262       .  A
N1545      O1550   1.262       .  A
N1548      O1552   1.262       .  A
N1548      O1551   1.262       .  A
C1553      C1554   1.406       .  A
C1553      C1558   1.399       .  A
C1553      H1560   1.084       .  S
C1554      C1555   1.414       .  A
C1555      C1556   1.406       .  A
C1555      N3128   1.429       .  S
C1556      C1557   1.410       .  A
C1556      H1561   1.083       .  S
C1557      C1558   1.418       .  A
C1558      N1559   1.429       .  S
N1559      O1563   1.262       .  A
N1559      O1564   1.262       .  A
N1562      C3121   1.428       .  S
N1562      O3132   1.262       .  A
N1562      O1565   1.262       .  A
O1566      N3128   1.262       .  A
C1567      N1568   1.370       .  A
C1567      N1572   1.371       .  A
C1567      C2340   1.497       .  S
N1568      C1569   1.361       .  A
C1569      N1570   1.344       .  A
C1569      C2323   1.472       .  S
N1570      C1571   1.342       .  A
C1571      N1572   1.360       .  A
C1571      C2309   1.470       .  S
C1573      N1574   1.369       .  A
C1573      N1578   1.370       .  A
C1573      C2295   1.497       .  S
N1574      C1575   1.360       .  A
C1575      N1576   1.344       .  A
C1575      C2284   1.465       .  S
N1576      C1577   1.342       .  A
C1577      N1578   1.357       .  A
C1579      C1602   1.508       .  S
C1579      C1580   1.416       .  A
C1579      C1584   1.419       .  A
C1580      C1581   1.411       .  A
C1580      H1585   1.083       .  S
C1581      C1624   1.512       .  S
C1581      C1582   1.421       .  A
C1582      C1583   1.419       .  A
C1582      H1586   1.083       .  S
C1583      C1584   1.419       .  A
C1584      H1587   1.083       .  S
O1588     Cr1606   2.001       .  S
O1588      C1596   1.259   1_545  A
O1589     Cr1606   1.965       .  S
O1589      C1590   1.263       .  A
C1590      C2211   1.479       .  S
C1590      O1591   1.271       .  A
O1591     Cr1607   2.026       .  S
O1592     Cr1607   1.976       .  S
O1592      C1593   1.261       .  A
C1593      C2242   1.485       .  S
C1593      O1594   1.264   1_545  A
O1594     Cr2391   2.000       .  S
O1595     Cr1608   2.001       .  S
O1595      C2379   1.257       .  A
C1596      C2228   1.489       .  S
C1596      O2378   1.260       .  A
O1597     Cr2389   1.942       .  S
O1597      C1605   1.252       .  A
O1598     Cr1606   1.989       .  S
O1598      C1599   1.256       .  A
C1599      C2326   1.469       .  S
C1599      O1600   1.262       .  A
O1600     Cr1607   1.985       .  S
O1601     Cr1607   2.027       .  S
O1601      C2385   1.271   1_545  A
C1602      O2384   1.268       .  A
C1602      O1603   1.262       .  A
O1603     Cr1608   1.994       .  S
O1604     Cr1608   2.017       .  S
O1604      C1605   1.272       .  A
C1605      C2253   1.453       .  S
Cr1606     O2380   1.961       .  S
Cr1606     O1609   1.774       .  S
Cr1607     O1609   1.775       .  S
Cr1608     O2377   2.002       .  S
Cr1608     O2392   1.778       .  S
O1609     Cr2391   1.775   1_545  S
O1610     Cr1628   1.967       .  S
O1610      C1618   1.258       .  A
O1611     Cr1628   1.997       .  S
O1611      C1612   1.260       .  A
C1612      C2169   1.486       .  S
C1612      O1613   1.264       .  A
O1613     Cr1629   2.012       .  S
O1614     Cr1629   2.018       .  S
O1614      C1615   1.271       .  A
C1615      C2183   1.496       .  S
C1615      O1616   1.265       .  A
O1616     Cr1630   1.977       .  S
O1617     Cr1630   2.026       .  S
O1617      C1618   1.268       .  A
C1618      C2214   1.486       .  S
O1619     Cr1628   2.005       .  S
O1619      C1627   1.263       .  A
O1620     Cr1628   1.960       .  S
O1620      C1621   1.257       .  A
C1621      C2200   1.490       .  S
C1621      O1622   1.274       .  A
O1622     Cr1629   2.026       .  S
O1623     Cr1629   2.020       .  S
O1623      C1624   1.269       .  A
C1624      O1625   1.265       .  A
O1625     Cr1630   2.015       .  S
O1626     Cr1630   1.980       .  S
O1626      C1627   1.262       .  A
C1627      C2270   1.472       .  S
Cr1628     O1631   1.774       .  S
Cr1629     O1631   1.772       .  S
Cr1630     O1631   1.775       .  S
O1632     Cr1650   1.997       .  S
O1632      C1640   1.259       .  A
O1633     Cr1650   1.980       .  S
O1633      C1634   1.258   1_545  A
C1634      C2225   1.479       .  S
C1634      O2418   1.269       .  A
O1635     Cr1651   2.044       .  S
O1635      C2417   1.273       .  A
O1636     Cr1651   1.968       .  S
O1636      C2420   1.261       .  A
C1637      C2155   1.484       .  S
C1637      O2419   1.263       .  A
C1637      O1638   1.273   1_565  A
O1638     Cr1652   2.020       .  S
O1639     Cr1652   2.005       .  S
O1639      C1640   1.260       .  A
C1640      C2172   1.486       .  S
O1641     Cr1650   1.964       .  S
O1641      C1649   1.257       .  A
O1642     Cr2433   1.991       .  S
O1642      C1643   1.257       .  A
C1643      C2281   1.464       .  S
C1643      O1644   1.263       .  A
O1644     Cr1651   1.990       .  S
O1645     Cr1651   2.038       .  S
O1645      C1646   1.272       .  A
C1646      O2430   1.266       .  A
O1647     Cr1652   2.009       .  S
O1647      C2429   1.265   1_545  A
O1648     Cr1652   2.032       .  S
O1648      C1649   1.275       .  A
C1649      C2312   1.479       .  S
Cr1650     O2425   1.994   1_545  S
Cr1650     O1653   1.778       .  S
Cr1651     O2436   1.777       .  S
Cr1652     O1653   1.782       .  S
O1653     Cr2434   1.784   1_545  S
C1654      N1655   1.373       .  A
C1654      N1659   1.365       .  A
C1654      C2144   1.483       .  S
N1655      C1656   1.366       .  A
C1656      N1657   1.343       .  A
C1656      C2197   1.476       .  S
N1657      C1658   1.340       .  A
C1658      N1659   1.350       .  A
C1658      C2256   1.453       .  S
C1660      N1661   1.370       .  A
C1660      N1665   1.366       .  A
C1660      C2127   1.484       .  S
N1661      C1662   1.362       .  A
C1662      N1663   1.345       .  A
C1662      C2113   1.472       .  S
N1663      C1664   1.343       .  A
C1664      N1665   1.355       .  A
C1664      C2099   1.462       .  S
C1666      N1667   1.372       .  A
C1666      N1671   1.372       .  A
C1666      C2085   1.503       .  S
N1667      C1668   1.362       .  A
C1668      N1669   1.345       .  A
C1668      C2071   1.480       .  S
N1669      C1670   1.340       .  A
C1670      N1671   1.359       .  A
C1670      C2057   1.468       .  S
C1672      C1695   1.509       .  S
C1672      C1673   1.418       .  A
C1672      C1677   1.418       .  A
C1673      C1674   1.415       .  A
C1673      H1678   1.083       .  S
C1674      C1717   1.511       .  S
C1674      C1675   1.411       .  A
C1675      C1676   1.418       .  A
C1675      H1679   1.083       .  S
C1676      C1739   1.507       .  S
C1676      C1677   1.415       .  A
C1677      H1680   1.083       .  S
O1681      C1689   1.258       .  A
O1682     Cr1699   1.995       .  S
O1682      C1683   1.259       .  A
C1683      C2043   1.482       .  S
C1683      O1684   1.261       .  A
O1684     Cr1700   2.006       .  S
O1685     Cr1700   2.020       .  S
O1685      C1686   1.271       .  A
C1686      C2298   1.494       .  S
C1686      O1687   1.259       .  A
O1687     Cr1701   1.965       .  S
O1688      C1689   1.267       .  A
C1689      C2032   1.477       .  S
O1690     Cr1699   2.002       .  S
O1690      C1698   1.261       .  A
O1691     Cr1699   1.961       .  S
O1691      C1692   1.260       .  A
C1692      C2116   1.484       .  S
C1692      O1693   1.274       .  A
O1693     Cr1700   2.025       .  S
O1694     Cr1700   2.005       .  S
O1694      C1695   1.266       .  A
C1695      O1696   1.269       .  A
O1696     Cr1701   2.023       .  S
O1697     Cr1701   1.974       .  S
O1697      C1698   1.260       .  A
Cr1699     O1702   1.773       .  S
Cr1700     O1702   1.778       .  S
Cr1701     O1702   1.776       .  S
O1703     Cr1721   1.971       .  S
O1703      C1711   1.262       .  A
O1704      C1705   1.259       .  A
C1705      C2004   1.477       .  S
C1705      O1706   1.258       .  A
O1707     Cr1722   2.022       .  S
O1707      C1708   1.271       .  A
C1708      C2337   1.491       .  S
C1708      O1709   1.261       .  A
O1709     Cr1723   1.970       .  S
O1710     Cr1723   2.047       .  S
O1710      C1711   1.275       .  A
C1711      C2046   1.500       .  S
O1712     Cr1721   1.987       .  S
O1712      C1720   1.256       .  A
O1713     Cr1721   1.963       .  S
O1713      C1714   1.258       .  A
C1714      O1715   1.275       .  A
O1715     Cr1722   2.037       .  S
O1716     Cr1722   1.997       .  S
O1716      C1717   1.264       .  A
C1717      O1718   1.273       .  A
O1718     Cr1723   2.037       .  S
O1719     Cr1723   1.981       .  S
O1719      C1720   1.261       .  A
C1720      C2015   1.467       .  S
Cr1721     O1724   1.773       .  S
Cr1722     O1724   1.782       .  S
Cr1723     O1724   1.775       .  S
O1725     Cr1743   1.977       .  S
O1725      C1733   1.256       .  A
O1726     Cr1743   1.973       .  S
O1726      C1727   1.260       .  A
C1727      C2029   1.476       .  S
C1727      O1728   1.267       .  A
O1728     Cr1744   2.015       .  S
O1729     Cr1744   1.980       .  S
O1729      C1730   1.266       .  A
C1730      C2141   1.492       .  S
C1730      O1731   1.270       .  A
O1731     Cr1745   2.007       .  S
O1732     Cr1745   2.018       .  S
O1732      C1733   1.262       .  A
C1733      C2001   1.486       .  S
O1734     Cr1743   1.958       .  S
O1734      C1742   1.260       .  A
O1735     Cr1743   1.993       .  S
O1735      C1736   1.258       .  A
C1736      C1987   1.473       .  S
C1736      O1737   1.264       .  A
O1737     Cr1744   2.000       .  S
O1738     Cr1744   1.998       .  S
O1738      C1739   1.262       .  A
C1739      O1740   1.267       .  A
O1740     Cr1745   2.019       .  S
O1741     Cr1745   2.024       .  S
O1741      C1742   1.273       .  A
C1742      C2102   1.475       .  S
Cr1743     O1746   1.774       .  S
Cr1744     O1746   1.772       .  S
Cr1745     O1746   1.776       .  S
C1747      N1748   1.370       .  A
C1747      N1752   1.372       .  A
C1747      C1973   1.492       .  S
N1748      C1749   1.355       .  A
C1749      N1750   1.337       .  A
C1749      C1990   1.461       .  S
N1750      C1751   1.343       .  A
C1751      N1752   1.363       .  A
C1751      C2018   1.478       .  S
C1753      N2537   1.370   1_545  A
C1753      N1758   1.367       .  A
C1753      C2239   1.496       .  S
N1754      C2536   1.371       .  A
N1754      C1755   1.362       .  A
C1755      N2539   1.344   1_556  A
C1755      C1945   1.464   1_556  S
N1756      C2538   1.343   1_544  A
N1756      C1757   1.344       .  A
C1757      N1758   1.356   1_554  A
C1757      C1959   1.463       .  S
C1759      N1760   1.369       .  A
C1759      N1764   1.370       .  A
C1759      C2186   1.497       .  S
N1760      C1761   1.358   1_556  A
C1761      N1762   1.342       .  A
C1761      C1920   1.462       .  S
N1762      C1763   1.342       .  A
C1763      N1764   1.360   1_554  A
C1763      C1934   1.466       .  S
C1765      C1832   1.515       .  S
C1765      C1766   1.417       .  A
C1765      C1770   1.423       .  A
C1766      C1767   1.418       .  A
C1766      H1771   1.083       .  S
C1767      C1788   1.509       .  S
C1767      C1768   1.412       .  A
C1768      C1769   1.415       .  A
C1768      H1772   1.083       .  S
C1769      C2593   1.514       .  S
C1769      C1770   1.420       .  A
C1770      H1773   1.083       .  S
O1774     Cr1792   1.962       .  S
O1774      C1782   1.262       .  A
O1775     Cr1792   1.988       .  S
O1775      C1776   1.256       .  A
C1776      C1892   1.487       .  S
C1776      O1777   1.262       .  A
O1778     Cr1793   2.016       .  S
O1778      C1779   1.270       .  A
C1779      C2088   1.495       .  S
C1779      O1780   1.263       .  A
O1780     Cr1794   1.976       .  S
O1781      C1782   1.269       .  A
C1782      C1903   1.483       .  S
O1783      C1791   1.257       .  A
O1784      C1785   1.261       .  A
C1785      C1962   1.481       .  S
C1785      O1786   1.275       .  A
O1786     Cr1793   2.025       .  S
O1787     Cr1793   2.010       .  S
O1787      C1788   1.267       .  A
C1788      O1789   1.267       .  A
O1789     Cr1794   2.017       .  S
O1790     Cr1794   1.983       .  S
O1790      C1791   1.261       .  A
C1791      C1931   1.474       .  S
Cr1793     O1795   1.773       .  S
Cr1794     O1795   1.776       .  S
O1796     Cr1814   1.983       .  S
O1796      C1804   1.260       .  A
O1797     Cr1814   1.984       .  S
O1797      C1798   1.259       .  A
C1798      C1906   1.476       .  S
C1798      O1799   1.260       .  A
O1799     Cr1815   1.999       .  S
O1800     Cr1815   2.008       .  S
O1800      C1801   1.269       .  A
C1801      C2130   1.490       .  S
C1801      O1802   1.266       .  A
O1802     Cr1816   1.977       .  S
O1803     Cr1816   2.042       .  S
O1803      C1804   1.269       .  A
C1804      C1861   1.503       .  S
O1805     Cr1814   2.004       .  S
O1805      C1813   1.262       .  A
O1806     Cr1814   1.970       .  S
O1806      C1807   1.261       .  A
C1807      C1875   1.485       .  S
C1807      O1808   1.271       .  A
O1808     Cr1815   2.015       .  S
O1809     Cr1815   2.014       .  S
O1809      C1810   1.266       .  A
C1810      C2552   1.514       .  S
C1810      O1811   1.267       .  A
O1811     Cr1816   2.022       .  S
O1812     Cr1816   1.989       .  S
O1812      C1813   1.265       .  A
C1813      C1948   1.478       .  S
Cr1814     O1817   1.776       .  S
Cr1815     O1817   1.783       .  S
Cr1816     O1817   1.776       .  S
O1818     Cr1836   1.978       .  S
O1818      C1826   1.256       .  A
O1819     Cr1836   1.990       .  S
O1819      C1820   1.259       .  A
C1820      C1864   1.483       .  S
C1820      O1821   1.263       .  A
O1821     Cr1837   2.010       .  S
O1822     Cr1837   2.008       .  S
O1822      C1823   1.268       .  A
C1823      C1976   1.490       .  S
C1823      O1824   1.264       .  A
O1824     Cr1838   1.978       .  S
O1825     Cr1838   2.029       .  S
O1825      C1826   1.266       .  A
C1826      C1889   1.478       .  S
O1827     Cr1836   1.994       .  S
O1827      C1835   1.261       .  A
O1828     Cr1836   1.965       .  S
O1828      C1829   1.257       .  A
C1829      C1917   1.478       .  S
C1829      O1830   1.272       .  A
O1830     Cr1837   2.024       .  S
O1831     Cr1837   2.017       .  S
O1831      C1832   1.270       .  A
C1832      O1833   1.269       .  A
O1833     Cr1838   2.029       .  S
O1834     Cr1838   1.981       .  S
O1834      C1835   1.264       .  A
C1835      C1847   1.462       .  S
Cr1836     O1839   1.777       .  S
Cr1837     O1839   1.781       .  S
Cr1838     O1839   1.782       .  S
C1840      N2624   1.371   1_545  A
C1840      N1845   1.370       .  A
C1840      C2158   1.494       .  S
N1841      C2623   1.371       .  A
N1841      C1842   1.360   1_556  A
C1842      N2626   1.344       .  A
C1842      C1878   1.468       .  S
N1843      C2625   1.343       .  A
N1843      C1844   1.343   1_565  A
C1844      N1845   1.360   1_554  A
C1844      C1850   1.471       .  S
C1846      C1847   1.401       .  A
C1846      C1851   1.401       .  A
C1846      H1853   1.084       .  S
C1847      C1848   1.402       .  A
C1848      C1849   1.396       .  A
C1848      N1855   1.429       .  S
C1849      C1850   1.408       .  A
C1849      H1854   1.084       .  S
C1850      C1851   1.410       .  A
C1851      N1852   1.427       .  S
N1852      O1856   1.262   1_554  A
N1852      O1857   1.262   1_554  A
N1855      O1859   1.262       .  A
N1855      O1858   1.262       .  A
C1860      C1861   1.402       .  A
C1860      C1865   1.399       .  A
C1860      H1867   1.071       .  S
C1861      C1862   1.415       .  A
C1862      C1863   1.415       .  A
C1862      N1869   1.428       .  S
C1863      C1864   1.406       .  A
C1863      H1868   1.083       .  S
C1864      C1865   1.405       .  A
C1865      N1866   1.430       .  S
N1866      O1870   1.262       .  A
N1866      O1871   1.262       .  A
N1869      O1873   1.261       .  A
N1869      O1872   1.262       .  A
C1874      C1875   1.409       .  A
C1874      C1879   1.404       .  A
C1874      H1881   1.084       .  S
C1875      C1876   1.412       .  A
C1876      C1877   1.397       .  A
C1876      N1883   1.430       .  S
C1877      C1878   1.402       .  A
C1877      H1882   1.085       .  S
C1878      C1879   1.407       .  A
C1879      N1880   1.429   1_554  S
N1880      O1884   1.262       .  A
N1880      O1885   1.262       .  A
N1883      O1887   1.262       .  A
N1883      O1886   1.262       .  A
C1888      C1889   1.398       .  A
C1888      C1893   1.398       .  A
C1888      H1895   1.084       .  S
C1889      C1890   1.411       .  A
C1890      C1891   1.413       .  A
C1890      N1897   1.431       .  S
C1891      C1892   1.408       .  A
C1891      H1896   1.083       .  S
C1892      C1893   1.417       .  A
C1893      N1894   1.432       .  S
N1894      O1898   1.262       .  A
N1894      O1899   1.262       .  A
N1897      O1901   1.262       .  A
N1897      O1900   1.262       .  A
C1902      C1903   1.397       .  A
C1902      C1907   1.391       .  A
C1902      H1909   1.085       .  S
C1903      C1904   1.415       .  A
C1904      C1905   1.410       .  A
C1904      N1911   1.428       .  S
C1905      C1906   1.404       .  A
C1905      H1910   1.083       .  S
C1906      C1907   1.405       .  A
C1907      N1908   1.422       .  S
N1908      O1912   1.262       .  A
N1908      O1913   1.262       .  A
N1911      O1915   1.261       .  A
N1911      O1914   1.262       .  A
C1916      C1917   1.404       .  A
C1916      C1921   1.404       .  A
C1916      H1923   1.084       .  S
C1917      C1918   1.408       .  A
C1918      C1919   1.396       .  A
C1918      N1925   1.427       .  S
C1919      C1920   1.401       .  A
C1919      H1924   1.084       .  S
C1920      C1921   1.411       .  A
C1921      N1922   1.431   1_554  S
N1922      O1926   1.262       .  A
N1922      O1927   1.262       .  A
N1925      O1929   1.261       .  A
N1925      O1928   1.262       .  A
C1930      C1931   1.397       .  A
C1930      C1935   1.392       .  A
C1930      H1937   1.084       .  S
C1931      C1932   1.417       .  A
C1932      C1933   1.408       .  A
C1932      N1939   1.432       .  S
C1933      C1934   1.401       .  A
C1933      H1938   1.084       .  S
C1934      C1935   1.412       .  A
C1935      N1936   1.433       .  S
N1936      O1940   1.262       .  A
N1936      O1941   1.263       .  A
C1944      C1945   1.399       .  A
C1944      C1949   1.406       .  A
C1944      H1951   1.084       .  S
C1945      C1946   1.409       .  A
C1946      C1947   1.398       .  A
C1946      N2736   1.431       .  S
C1947      C1948   1.402       .  A
C1947      H1952   1.084       .  S
C1948      C1949   1.417       .  A
C1949      N1950   1.434       .  S
N1950      O1954   1.262       .  A
N1950      O1955   1.263       .  A
N1953      C2729   1.430   1_545  S
N1953      O1957   1.262       .  A
N1953      O1956   1.262   1_554  A
C1958      C1959   1.400       .  A
C1958      C1963   1.401       .  A
C1958      H1965   1.084   1_554  S
C1959      C1960   1.409       .  A
C1960      C1961   1.399       .  A
C1960      N1967   1.435       .  S
C1961      C1962   1.403       .  A
C1961      H1966   1.083       .  S
C1962      C1963   1.414       .  A
C1963      N1964   1.428       .  S
N1964      O1969   1.261       .  A
N1967      O1971   1.262       .  A
N1967      O1970   1.263       .  A
C1972      C1973   1.406       .  A
C1972      C1977   1.399       .  A
C1972      H1979   1.084       .  S
C1973      C1974   1.416       .  A
C1974      C1975   1.403       .  A
C1974      N1981   1.428       .  S
C1975      C1976   1.406       .  A
C1975      H1980   1.084       .  S
C1976      C1977   1.414       .  A
C1977      N1978   1.429       .  S
N1978      O1982   1.262       .  A
N1978      O1983   1.262       .  A
N1981      O1985   1.262       .  A
N1981      O1984   1.262       .  A
C1986      C1987   1.401       .  A
C1986      C1991   1.402       .  A
C1986      H1993   1.084       .  S
C1987      C1988   1.411       .  A
C1988      C1989   1.401       .  A
C1988      N1995   1.429       .  S
C1989      C1990   1.402       .  A
C1989      H1994   1.084       .  S
C1990      C1991   1.411       .  A
C1991      N1992   1.433       .  S
N1992      O1996   1.262       .  A
N1992      O1997   1.262       .  A
N1995      O1999   1.262       .  A
N1995      O1998   1.262       .  A
C2000      C2001   1.400       .  A
C2000      C2788   1.395       .  A
C2000      H2007   1.082       .  S
C2001      C2002   1.416       .  A
C2002      C2003   1.419       .  A
C2002      N2009   1.434       .  S
C2003      C2787   1.408       .  A
C2003      H2008   1.083       .  S
C2004      C2786   1.400   1_545  A
C2004      C2005   1.410       .  A
C2005      C2783   1.408   1_545  A
C2005      N2006   1.428       .  S
N2006      O2010   1.261       .  A
N2006      O2011   1.261       .  A
N2009      O2013   1.262       .  A
N2009      O2012   1.262       .  A
C2014      C2015   1.406       .  A
C2014      C2019   1.403       .  A
C2014      H2021   1.084       .  S
C2015      C2016   1.405       .  A
C2016      C2017   1.393       .  A
C2016      N2023   1.435       .  S
C2017      C2018   1.409       .  A
C2017      H2022   1.085       .  S
C2018      C2019   1.410       .  A
C2019      N2020   1.428       .  S
N2020      O2024   1.262       .  A
N2020      O2025   1.262       .  A
N2023      O2027   1.263       .  A
N2023      O2026   1.261       .  A
C2028      C2029   1.406       .  A
C2028      C2033   1.402       .  A
C2028      H2035   1.083       .  S
C2029      C2030   1.409       .  A
C2030      C2031   1.397       .  A
C2030      N2037   1.430       .  S
C2031      C2032   1.400       .  A
C2031      H2036   1.077       .  S
C2032      C2033   1.408       .  A
C2033      N2034   1.427       .  S
N2034      O2038   1.261       .  A
N2034      O2039   1.262       .  A
N2037      O2041   1.262       .  A
N2037      O2040   1.262       .  A
C2042      C2043   1.403       .  A
C2042      C2047   1.410       .  A
C2042      H2049   1.083       .  S
C2043      C2044   1.408       .  A
C2044      C2045   1.398       .  A
C2044      N2051   1.423       .  S
C2045      C2829   1.402       .  A
C2045      H2050   1.084       .  S
C2046      C2828   1.407   1_545  A
C2046      C2830   1.420       .  A
C2047      C2829   1.417       .  A
C2047      N2831   1.427       .  S
N2048      C2830   1.430       .  S
N2048      O2052   1.262       .  A
N2048      O2053   1.263       .  A
N2051      O2055   1.262       .  A
N2051      O2054   1.262       .  A
C2056      C2057   1.404   1_455  A
C2057      C2058   1.411       .  A
C2058      C2059   1.399       .  A
C2058      N2065   1.429       .  S
C2059      C2060   1.400   1_655  A
C2059      H2064   1.082       .  S
C2061      N2062   1.430       .  S
N2062      O2066   1.262       .  A
N2062      O2067   1.262       .  A
N2065      O2069   1.262       .  A
N2065      O2068   1.262       .  A
C2070      C2071   1.407       .  A
C2070      C2075   1.395       .  A
C2070      H2077   1.085       .  S
C2071      C2072   1.409       .  A
C2073      H2078   1.084       .  S
C2074      C2075   1.408       .  A
C2075      N2076   1.434       .  S
N2076      O2080   1.262       .  A
N2076      O2081   1.262       .  A
N2079      O2083   1.262       .  A
C2084      C2085   1.411       .  A
C2084      C2089   1.406       .  A
C2085      C2086   1.419       .  A
C2086      C2087   1.403       .  A
C2086      N2093   1.429       .  S
C2087      C2088   1.405       .  A
C2087      H2092   1.084       .  S
C2088      C2089   1.413       .  A
N2090      O2094   1.262       .  A
N2090      O2095   1.262       .  A
N2093      O2097   1.262       .  A
N2093      O2096   1.262       .  A
C2098      C2099   1.401       .  A
C2098      C2103   1.397       .  A
C2098      H2105   1.085       .  S
C2099      C2100   1.406       .  A
C2100      C2101   1.400       .  A
C2100      N2107   1.430       .  S
C2101      C2102   1.407       .  A
C2101      H2106   1.084       .  S
C2102      C2103   1.412       .  A
C2103      N2104   1.431       .  S
N2104      O2108   1.262       .  A
N2104      O2109   1.262       .  A
N2107      O2111   1.262       .  A
N2107      O2110   1.262       .  A
C2112      C2113   1.405       .  A
C2112      C2117   1.396       .  A
C2112      H2119   1.085       .  S
C2113      C2114   1.407       .  A
C2114      C2115   1.403       .  A
C2114      N2121   1.429       .  S
C2115      C2116   1.410       .  A
C2115      H2120   1.084       .  S
C2116      C2117   1.411       .  A
C2117      N2118   1.429       .  S
N2118      O2122   1.262       .  A
N2118      O2123   1.262       .  A
N2121      O2125   1.262       .  A
N2121      O2124   1.262       .  A
C2126      C2127   1.404       .  A
C2126      C2131   1.403       .  A
C2126      H2133   1.084       .  S
C2127      C2128   1.412       .  A
C2128      C2129   1.399       .  A
C2128      N2135   1.430       .  S
C2129      C2130   1.406       .  A
C2129      H2134   1.084       .  S
C2130      C2131   1.417       .  A
C2131      N2132   1.429       .  S
N2132      O2136   1.262       .  A
N2132      O2137   1.262       .  A
N2135      O2139   1.262       .  A
N2135      O2138   1.262       .  A
C2140      C2141   1.410       .  A
C2140      C2145   1.405       .  A
C2140      H2147   1.083       .  S
C2141      C2142   1.416       .  A
C2142      C2143   1.397       .  A
C2142      N2149   1.430       .  S
C2143      C2144   1.403       .  A
C2143      H2148   1.084       .  S
C2144      C2145   1.409       .  A
C2145      N2146   1.428       .  S
N2146      O2150   1.262       .  A
N2146      O2151   1.262       .  A
N2149      O2153   1.262       .  A
N2149      O2152   1.262       .  A
C2154      C2155   1.401   1_545  A
C2154      C2159   1.403       .  A
C2154      H2161   1.084       .  S
C2155      C2156   1.412       .  A
C2156      C2157   1.404       .  A
C2156      N2163   1.431       .  S
C2157      C2158   1.407   1_565  A
C2157      H2162   1.083       .  S
C2158      C2159   1.417       .  A
C2159      N2943   1.428       .  S
N2160      C2942   1.429       .  S
N2160      O2947   1.262       .  A
N2160      O2165   1.262       .  A
N2163      O2167   1.262       .  A
N2163      O2166   1.262       .  A
O2164      N2943   1.261       .  A
C2168      C2169   1.402       .  A
C2168      C2173   1.407       .  A
C2168      H2175   1.078       .  S
C2169      C2170   1.410       .  A
C2170      C2171   1.409       .  A
C2170      N2177   1.429       .  S
C2171      C2172   1.405       .  A
C2171      H2176   1.081       .  S
C2172      C2173   1.409       .  A
C2173      N2174   1.430       .  S
N2174      O2178   1.261       .  A
N2174      O2179   1.262       .  A
N2177      O2181   1.262       .  A
N2177      O2180   1.262       .  A
C2182      C2183   1.408       .  A
C2182      C2187   1.404       .  A
C2182      H2189   1.083       .  S
C2183      C2184   1.415       .  A
C2184      C2185   1.402       .  A
C2184      N2191   1.429       .  S
C2185      C2186   1.408       .  A
C2185      H2190   1.083       .  S
C2186      C2187   1.416       .  A
C2187      N2188   1.430       .  S
N2188      O2192   1.262       .  A
N2188      O2193   1.262       .  A
N2191      O2195   1.262       .  A
N2191      O2194   1.262       .  A
C2196      C2197   1.400       .  A
C2196      C2201   1.406       .  A
C2196      H2203   1.084       .  S
C2197      C2198   1.416       .  A
C2198      C2199   1.395       .  A
C2198      N2205   1.432       .  S
C2199      C2200   1.401       .  A
C2199      H2204   1.084       .  S
C2200      C2201   1.422       .  A
C2201      N2202   1.430       .  S
N2202      O2206   1.262       .  A
N2202      O2207   1.262       .  A
N2205      O2209   1.263       .  A
N2205      O2208   1.262       .  A
C2210      C2211   1.400       .  A
C2210      C2215   1.397       .  A
C2210      H2217   1.084       .  S
C2211      C2212   1.413       .  A
C2212      C2213   1.405       .  A
C2212      N2219   1.429       .  S
C2213      C2214   1.406       .  A
C2213      H2218   1.084       .  S
C2214      C2215   1.412       .  A
C2215      N2216   1.429       .  S
N2216      O2220   1.262       .  A
N2216      O2221   1.262       .  A
N2219      O2223   1.262       .  A
N2219      O2222   1.262       .  A
C2224      C3008   1.399       .  A
C2224      C2229   1.400       .  A
C2224      H2231   1.084       .  S
C2225      C3007   1.397       .  A
C2225      C2226   1.411       .  A
C2226      C2227   1.415       .  A
C2226      N2233   1.432   1_565  S
C2227      C2228   1.409       .  A
C2227      H2232   1.083   1_565  S
C2228      C3012   1.412       .  A
C2229      C3011   1.412       .  A
C2229      N2230   1.433       .  S
N2230      O2234   1.262       .  A
N2230      O2235   1.262       .  A
N2233      O2237   1.262       .  A
N2233      O2236   1.263   1_545  A
C2238      C3022   1.407       .  A
C2238      C2243   1.402       .  A
C2238      H2245   1.083       .  S
C2239      C3021   1.409   1_545  A
C2239      C2240   1.418       .  A
C2240      C2241   1.400       .  A
C2240      N2247   1.429       .  S
C2241      C2242   1.403       .  A
C2241      H2246   1.084       .  S
C2242      C3026   1.412   1_545  A
C2243      C3025   1.413       .  A
C2243      N2244   1.429       .  S
N2244      O2248   1.262       .  A
N2244      O2249   1.262       .  A
N2247      O2251   1.262       .  A
N2247      O2250   1.262       .  A
C2252      C2253   1.401       .  A
C2252      C2257   1.399       .  A
C2252      H2259   1.083       .  S
C2253      C2254   1.402       .  A
C2254      C2255   1.391       .  A
C2254      N2261   1.430       .  S
C2255      C2256   1.403       .  A
C2255      H2260   1.085       .  S
C2256      C2257   1.406       .  A
C2257      N2258   1.429       .  S
N2258      O2262   1.262       .  A
N2258      O2263   1.262       .  A
N2261      O2265   1.262       .  A
N2261      O2264   1.262       .  A
C2266      H2273   1.085       .  S
C2267      C2268   1.407       .  A
C2268      C2269   1.402       .  A
C2268      N2275   1.429       .  S
C2269      C2270   1.404       .  A
C2269      H2274   1.084       .  S
C2270      C2271   1.408       .  A
C2271      N2272   1.431       .  S
N2272      O2277   1.262       .  A
N2275      O2279   1.262       .  A
N2275      O2278   1.262   1_655  A
C2280      C2281   1.402       .  A
C2280      C2285   1.402       .  A
C2280      H2287   1.084       .  S
C2281      C2282   1.403       .  A
C2282      C2283   1.397       .  A
C2282      N2289   1.429       .  S
C2283      C2284   1.405       .  A
C2283      H2288   1.084       .  S
C2284      C2285   1.410       .  A
C2285      N2286   1.429       .  S
N2286      O2290   1.262       .  A
N2286      O2291   1.262       .  A
N2289      O2293   1.262       .  A
N2289      O2292   1.262       .  A
C2294      C2295   1.406       .  A
C2294      C2299   1.398       .  A
C2294      H2301   1.083       .  S
C2295      C2296   1.418       .  A
C2296      C2297   1.405       .  A
C2296      N2303   1.429       .  S
C2297      C2298   1.406       .  A
C2297      H2302   1.083       .  S
C2298      C2299   1.417       .  A
C2299      N2300   1.430       .  S
N2300      O2304   1.262       .  A
N2300      O2305   1.262       .  A
N2303      O2307   1.262       .  A
N2303      O2306   1.262       .  A
C2308      C2309   1.403       .  A
C2308      C2313   1.397       .  A
C2308      H2315   1.084       .  S
C2309      C2310   1.409       .  A
C2310      C2311   1.406       .  A
C2310      N2317   1.428       .  S
C2311      C2312   1.407       .  A
C2311      H2316   1.083       .  S
C2312      C2313   1.405       .  A
C2313      N2314   1.426       .  S
N2314      O2318   1.261       .  A
N2314      O2319   1.262       .  A
N2317      O2321   1.262       .  A
N2317      O2320   1.262       .  A
C2322      C2327   1.405       .  A
C2322      H2329   1.084       .  S
C2323      C2324   1.414       .  A
C2324      N2331   1.431       .  S
C2325      C2326   1.394       .  A
C2325      H2330   1.084   1_655  S
C2326      C2327   1.413       .  A
C2327      N2328   1.430       .  S
N2328      O2332   1.261       .  A
N2328      O2333   1.262       .  A
N2331      O2335   1.262       .  A
N2331      O2334   1.262       .  A
C2336      C2337   1.406       .  A
C2336      C2341   1.402       .  A
C2336      H2343   1.084       .  S
C2337      C2338   1.412       .  A
C2338      C2339   1.406       .  A
C2339      C2340   1.410       .  A
C2339      H2344   1.083       .  S
C2340      C2341   1.415       .  A
C2341      N2342   1.429       .  S
N2342      O2346   1.262       .  A
N2342      O2347   1.262       .  A
N2345      O2348   1.262   1_455  A
C2350      N2351   1.371       .  A
C2350      N2355   1.367       .  A
C2350      C3123   1.496       .  S
N2351      C2352   1.363       .  A
C2352      N2353   1.345       .  A
C2352      C3106   1.477       .  S
N2353      C2354   1.341       .  A
C2354      N2355   1.356       .  A
C2354      C3092   1.464       .  S
C2356      N2357   1.370       .  A
C2356      N2361   1.371       .  A
C2356      C3078   1.494       .  S
N2357      C2358   1.359       .  A
C2358      N2359   1.341       .  A
C2358      C3067   1.461       .  S
N2359      C2360   1.341       .  A
C2360      N2361   1.357       .  A
C2362      C2385   1.505       .  S
C2362      C2363   1.415       .  A
C2362      C2367   1.420       .  A
C2363      C2364   1.408       .  A
C2363      H2368   1.083       .  S
C2364      C2407   1.507       .  S
C2364      C2365   1.421       .  A
C2365      C2366   1.417       .  A
C2365      H2369   1.083       .  S
C2366      C2367   1.418       .  A
C2367      H2370   1.083   1_565  S
O2371     Cr2389   2.000       .  S
O2371      C2379   1.259       .  A
O2372     Cr2389   1.974       .  S
O2372      C2373   1.260       .  A
C2373      C2994   1.476       .  S
C2373      O2374   1.269       .  A
O2374     Cr2390   2.027       .  S
O2375     Cr2390   1.973       .  S
O2375      C2376   1.264       .  A
C2376      C3025   1.481       .  S
C2376      O2377   1.267       .  A
O2378     Cr2391   2.010       .  S
C2379      C3011   1.486       .  S
O2380      C2388   1.258   1_545  A
O2381     Cr2389   1.998       .  S
O2381      C2382   1.261       .  A
C2382      C3109   1.468       .  S
C2382      O2383   1.265       .  A
O2383     Cr2390   1.986       .  S
O2384     Cr2390   2.030       .  S
C2385      O2386   1.266       .  A
O2386     Cr2391   1.995       .  S
O2387     Cr2391   2.021       .  S
O2387      C2388   1.272       .  A
C2388      C3036   1.462       .  S
Cr2389     O2392   1.779       .  S
Cr2390     O2392   1.776       .  S
O2393     Cr2411   1.972       .  S
O2393      C2401   1.256       .  A
O2394     Cr2411   1.980       .  S
O2394      C2395   1.258       .  A
C2395      C2952   1.483       .  S
C2395      O2396   1.265       .  A
O2396     Cr2412   2.014       .  S
O2397     Cr2412   2.016       .  S
O2397      C2398   1.273       .  A
C2398      C2966   1.486       .  S
C2398      O2399   1.267       .  A
O2399     Cr2413   1.977       .  S
O2400     Cr2413   2.021       .  S
O2400      C2401   1.265       .  A
C2401      C2997   1.474       .  S
O2402     Cr2411   1.998       .  S
O2402      C2410   1.262       .  A
O2403     Cr2411   1.956       .  S
O2403      C2404   1.255       .  A
C2404      C2983   1.485       .  S
C2404      O2405   1.273       .  A
O2405     Cr2412   2.021       .  S
O2406     Cr2412   2.028       .  S
O2406      C2407   1.270       .  A
C2407      O2408   1.260       .  A
O2408     Cr2413   1.999       .  S
O2409     Cr2413   1.982       .  S
O2409      C2410   1.262       .  A
C2410      C3053   1.475       .  S
Cr2411     O2414   1.772       .  S
Cr2412     O2414   1.772       .  S
Cr2413     O2414   1.776       .  S
O2415     Cr2433   1.987       .  S
O2415      C2423   1.255       .  A
O2416     Cr2433   1.966       .  S
O2416      C2417   1.256       .  A
C2417      C3008   1.476       .  S
O2418     Cr2434   2.032       .  S
O2419     Cr2434   1.971       .  S
C2420      C2938   1.492       .  S
C2420      O2421   1.272       .  A
O2421     Cr2435   2.018       .  S
O2422     Cr2435   2.014       .  S
O2422      C2423   1.262       .  A
C2423      C2955   1.488       .  S
O2424     Cr2433   1.951       .  S
O2424      C2432   1.256       .  A
O2425      C2426   1.259       .  A
C2426      C3064   1.464       .  S
C2426      O2427   1.264       .  A
O2427     Cr2434   1.987       .  S
O2428     Cr2434   2.027       .  S
O2428      C2429   1.268       .  A
O2430     Cr2435   2.009       .  S
O2431     Cr2435   2.030       .  S
O2431      C2432   1.276       .  A
C2432      C3095   1.467       .  S
Cr2433     O2436   1.772       .  S
Cr2435     O2436   1.779       .  S
C2437      N2438   1.368       .  A
C2437      N2442   1.363       .  A
C2437      C2927   1.482       .  S
N2438      C2439   1.363       .  A
C2439      N2440   1.348       .  A
C2439      C2980   1.471       .  S
N2440      C2441   1.344       .  A
C2441      N2442   1.351       .  A
C2441      C3039   1.456       .  S
C2443      N2444   1.371       .  A
C2443      N2448   1.368       .  A
C2443      C2910   1.499       .  S
N2444      C2445   1.361       .  A
C2445      N2446   1.341       .  A
C2445      C2896   1.467       .  S
N2446      C2447   1.342       .  A
C2447      N2448   1.359       .  A
C2447      C2882   1.468       .  S
C2449      N2450   1.367       .  A
C2449      N2454   1.373       .  A
C2449      C2868   1.490       .  S
N2450      C2451   1.353       .  A
C2451      N2452   1.340       .  A
C2451      C2854   1.461       .  S
N2452      C2453   1.343       .  A
C2453      N2454   1.364       .  A
C2453      C2840   1.474       .  S
C2455      C2478   1.507       .  S
C2455      C2456   1.421       .  A
C2455      C2460   1.411       .  A
C2456      C2457   1.419       .  A
C2456      H2461   1.083       .  S
C2457      C2500   1.517       .  S
C2457      C2458   1.416       .  A
C2458      C2459   1.420       .  A
C2458      H2462   1.083       .  S
C2459      C2522   1.504       .  S
C2459      C2460   1.411       .  A
C2460      H2463   1.083       .  S
O2464      C2472   1.256   1_455  A
O2465     Cr2482   1.987       .  S
O2465      C2466   1.256       .  A
C2466      C2826   1.482       .  S
C2466      O2467   1.262       .  A
O2467     Cr2483   2.013       .  S
O2468     Cr2483   2.019       .  S
O2468      C2469   1.272       .  A
C2469      C3081   1.494       .  S
C2469      O2470   1.260       .  A
O2470     Cr2484   1.967       .  S
O2471      C2472   1.267       .  A
C2472      C2815   1.470       .  S
O2473     Cr2482   1.987       .  S
O2473      C2481   1.257       .  A
O2474     Cr2482   1.946       .  S
O2474      C2475   1.255       .  A
C2475      C2899   1.477       .  S
C2475      O2476   1.276       .  A
O2476     Cr2483   2.039       .  S
O2477     Cr2483   2.010       .  S
O2477      C2478   1.269       .  A
C2478      O2479   1.267       .  A
O2479     Cr2484   2.015       .  S
O2480     Cr2484   1.986       .  S
O2480      C2481   1.262       .  A
Cr2482     O2485   1.766       .  S
Cr2483     O2485   1.771       .  S
Cr2484     O2485   1.777       .  S
O2486     Cr2504   1.970       .  S
O2486      C2494   1.263       .  A
O2487      C2488   1.256       .  A
C2488      C2787   1.487       .  S
C2488      O2489   1.261       .  A
O2490     Cr2505   2.017       .  S
O2490      C2491   1.269       .  A
C2491      C3120   1.494       .  S
C2491      O2492   1.261       .  A
O2492     Cr2506   1.966       .  S
O2493     Cr2506   2.040       .  S
O2493      C2494   1.273       .  A
C2494      C2829   1.491       .  S
O2495     Cr2504   1.987       .  S
O2495      C2503   1.257       .  A
O2496     Cr2504   1.967       .  S
O2496      C2497   1.260       .  A
C2497      O2498   1.277       .  A
O2498     Cr2505   2.027       .  S
O2499     Cr2505   2.006       .  S
O2499      C2500   1.266       .  A
C2500      O2501   1.272       .  A
O2501     Cr2506   2.037       .  S
O2502     Cr2506   1.977       .  S
O2502      C2503   1.261       .  A
C2503      C2798   1.466       .  S
Cr2504     O2507   1.776       .  S
Cr2505     O2507   1.780       .  S
Cr2506     O2507   1.776       .  S
O2508     Cr2526   1.986       .  S
O2508      C2516   1.257       .  A
O2509     Cr2526   1.949       .  S
O2509      C2510   1.253       .  A
C2510      C2812   1.467       .  S
C2510      O2511   1.268       .  A
O2511     Cr2527   2.032       .  S
O2512     Cr2527   1.980       .  S
O2512      C2513   1.265       .  A
C2513      C2924   1.491       .  S
C2513      O2514   1.270       .  A
O2514     Cr2528   2.007       .  S
O2515     Cr2528   2.011       .  S
O2515      C2516   1.262       .  A
C2516      C2784   1.479       .  S
O2517     Cr2526   1.950       .  S
O2517      C2525   1.256       .  A
O2518     Cr2526   1.996       .  S
O2518      C2519   1.259       .  A
C2519      C2770   1.469       .  S
C2519      O2520   1.264       .  A
O2520     Cr2527   1.993       .  S
O2521     Cr2527   2.014       .  S
O2521      C2522   1.266       .  A
C2522      O2523   1.269       .  A
O2523     Cr2528   2.008       .  S
O2524     Cr2528   2.032       .  S
O2524      C2525   1.275       .  A
C2525      C2885   1.479       .  S
Cr2526     O2529   1.766       .  S
Cr2527     O2529   1.775       .  S
Cr2528     O2529   1.768       .  S
C2530      N2531   1.368       .  A
C2530      N2535   1.371       .  A
C2530      C2756   1.477       .  S
N2531      C2532   1.354       .  A
C2532      N2533   1.339       .  A
C2532      C2773   1.460       .  S
N2533      C2534   1.344       .  A
C2534      N2535   1.362       .  A
C2534      C2801   1.479       .  S
C2536      N2541   1.362       .  A
C2536      C3022   1.493       .  S
N2537      C2538   1.359       .  A
C2538      C2728   1.463   1_556  S
N2539      C2540   1.343   1_554  A
C2540      N2541   1.350       .  A
C2540      C2742   1.454   1_556  S
C2542      N2543   1.370       .  A
C2542      N2547   1.369       .  A
C2542      C2969   1.492       .  S
N2543      C2544   1.359   1_556  A
C2544      N2545   1.341       .  A
C2544      C2703   1.465       .  S
N2545      C2546   1.343       .  A
C2546      N2547   1.358   1_554  A
C2546      C2717   1.466       .  S
C2548      C2615   1.515       .  S
C2548      C2549   1.417       .  A
C2548      C2553   1.422       .  A
C2549      C2550   1.419       .  A
C2549      H2554   1.083       .  S
C2550      C2571   1.510       .  S
C2550      C2551   1.413       .  A
C2551      C2552   1.416       .  A
C2551      H2555   1.083       .  S
C2552      C2553   1.419       .  A
C2553      H2556   1.083       .  S
O2557     Cr2575   1.958       .  S
O2557      C2565   1.261       .  A
O2558     Cr2575   1.988       .  S
O2558      C2559   1.256       .  A
C2559      C2675   1.487       .  S
C2559      O2560   1.262       .  A
O2561     Cr2576   2.016       .  S
O2561      C2562   1.269       .  A
C2562      C2871   1.492       .  S
C2562      O2563   1.262       .  A
O2563     Cr2577   1.966       .  S
O2564      C2565   1.270       .  A
C2565      C2686   1.482       .  S
O2566      C2574   1.258       .  A
O2567      C2568   1.257       .  A
C2568      C2745   1.471       .  S
C2568      O2569   1.274       .  A
O2569     Cr2576   2.026       .  S
O2570     Cr2576   2.010       .  S
O2570      C2571   1.267       .  A
C2571      O2572   1.268       .  A
O2572     Cr2577   2.020       .  S
O2573     Cr2577   1.975       .  S
O2573      C2574   1.260       .  A
C2574      C2714   1.476       .  S
Cr2576     O2578   1.773       .  S
Cr2577     O2578   1.771       .  S
O2579     Cr2597   1.976       .  S
O2579      C2587   1.260       .  A
O2580     Cr2597   1.986       .  S
O2580      C2581   1.258       .  A
C2581      C2689   1.475       .  S
C2581      O2582   1.258       .  A
O2582     Cr2598   1.996       .  S
O2583     Cr2598   2.015       .  S
O2583      C2584   1.272       .  A
C2584      C2913   1.490       .  S
C2584      O2585   1.266       .  A
O2585     Cr2599   1.977       .  S
O2586     Cr2599   2.041       .  S
O2586      C2587   1.270       .  A
C2587      C2644   1.497       .  S
O2588     Cr2597   2.001       .  S
O2588      C2596   1.259       .  A
O2589     Cr2597   1.967       .  S
O2589      C2590   1.259       .  A
C2590      C2658   1.480       .  S
C2590      O2591   1.274       .  A
O2591     Cr2598   2.024       .  S
O2592     Cr2598   2.014       .  S
O2592      C2593   1.266   1_565  A
C2593      O2594   1.267       .  A
O2594     Cr2599   2.020   1_545  S
O2595     Cr2599   1.989       .  S
O2595      C2596   1.264       .  A
C2596      C2731   1.480       .  S
Cr2597     O2600   1.777       .  S
Cr2598     O2600   1.781       .  S
Cr2599     O2600   1.775       .  S
O2601     Cr2619   1.983       .  S
O2601      C2609   1.256       .  A
O2602     Cr2619   1.988       .  S
O2602      C2603   1.259       .  A
C2603      C2647   1.480       .  S
C2603      O2604   1.262       .  A
O2604     Cr2620   2.006       .  S
O2605     Cr2620   2.011       .  S
O2605      C2606   1.271       .  A
C2606      C2759   1.488       .  S
C2606      O2607   1.266       .  A
O2607     Cr2621   1.973       .  S
O2608     Cr2621   2.035       .  S
O2608      C2609   1.268       .  A
C2609      C2672   1.483       .  S
O2610     Cr2619   2.010       .  S
O2610      C2618   1.264       .  A
O2611     Cr2619   1.965       .  S
O2611      C2612   1.259       .  A
C2612      C2700   1.482       .  S
C2612      O2613   1.272       .  A
O2613     Cr2620   2.023       .  S
O2614     Cr2620   2.019       .  S
O2614      C2615   1.268       .  A
C2615      O2616   1.266       .  A
O2616     Cr2621   2.023       .  S
O2617     Cr2621   1.975       .  S
O2617      C2618   1.263       .  A
C2618      C2630   1.470       .  S
Cr2619     O2622   1.777       .  S
Cr2620     O2622   1.778       .  S
Cr2621     O2622   1.776       .  S
C2623      N2628   1.366       .  A
C2623      C2941   1.492       .  S
N2624      C2625   1.361   1_556  A
C2625      C2661   1.470       .  S
N2626      C2627   1.344       .  A
C2627      N2628   1.355   1_554  A
C2627      C2633   1.460       .  S
C2629      C2630   1.400       .  A
C2629      C2634   1.394       .  A
C2629      H2636   1.084       .  S
C2630      C2631   1.411       .  A
C2631      C2632   1.402       .  A
C2631      N2638   1.427       .  S
C2632      C2633   1.400       .  A
C2632      H2637   1.084       .  S
C2633      C2634   1.408       .  A
C2634      N2635   1.430       .  S
N2635      O2639   1.262   1_554  A
N2635      O2640   1.262       .  A
N2638      O2642   1.262       .  A
N2638      O2641   1.262       .  A
C2643      C2644   1.403       .  A
C2643      C2648   1.399       .  A
C2643      H2650   1.073       .  S
C2644      C2645   1.416       .  A
C2645      C2646   1.413       .  A
C2645      N2652   1.429       .  S
C2646      C2647   1.405       .  A
C2646      H2651   1.082       .  S
C2647      C2648   1.405       .  A
C2648      N2649   1.430       .  S
N2649      O2653   1.262       .  A
N2649      O2654   1.262       .  A
N2652      O2656   1.261       .  A
N2652      O2655   1.262       .  A
C2657      C2658   1.408       .  A
C2657      C2662   1.405       .  A
C2657      H2664   1.084       .  S
C2658      C2659   1.408       .  A
C2659      C2660   1.396       .  A
C2659      N2666   1.430       .  S
C2660      C2661   1.404       .  A
C2660      H2665   1.085       .  S
C2661      C2662   1.409       .  A
C2662      N2663   1.430   1_554  S
N2663      O2667   1.262       .  A
N2663      O2668   1.262       .  A
N2666      O2670   1.262       .  A
N2666      O2669   1.262       .  A
C2671      C2672   1.396       .  A
C2671      C2676   1.397       .  A
C2671      H2678   1.079       .  S
C2672      C2673   1.415       .  A
C2673      C2674   1.416       .  A
C2673      N2680   1.435       .  S
C2674      C2675   1.407       .  A
C2674      H2679   1.083       .  S
C2675      C2676   1.414       .  A
C2676      N2677   1.431       .  S
N2677      O2681   1.262       .  A
N2677      O2682   1.262       .  A
N2680      O2684   1.262       .  A
N2680      O2683   1.262       .  A
C2685      C2686   1.399       .  A
C2685      C2690   1.391       .  A
C2685      H2692   1.085       .  S
C2686      C2687   1.416       .  A
C2687      C2688   1.410       .  A
C2687      N2694   1.428       .  S
C2688      C2689   1.404       .  A
C2688      H2693   1.083       .  S
C2689      C2690   1.404       .  A
C2690      N2691   1.422       .  S
N2691      O2695   1.262       .  A
N2691      O2696   1.262       .  A
N2694      O2698   1.261       .  A
N2694      O2697   1.262       .  A
C2699      C2700   1.407       .  A
C2699      C2704   1.403       .  A
C2699      H2706   1.084       .  S
C2700      C2701   1.410       .  A
C2701      C2702   1.398       .  A
C2701      N2708   1.428       .  S
C2702      C2703   1.402       .  A
C2702      H2707   1.084       .  S
C2703      C2704   1.409       .  A
C2704      N2705   1.430   1_554  S
N2705      O2709   1.262       .  A
N2705      O2710   1.262       .  A
N2708      O2712   1.262       .  A
N2708      O2711   1.262       .  A
C2713      C2714   1.398       .  A
C2713      C2718   1.389       .  A
C2713      H2720   1.084       .  S
C2714      C2715   1.417       .  A
C2715      C2716   1.407       .  A
C2715      N2722   1.429       .  S
C2716      C2717   1.401       .  A
C2716      H2721   1.084       .  S
C2717      C2718   1.412       .  A
C2718      N2719   1.433       .  S
N2719      O2723   1.262       .  A
N2719      O2724   1.263       .  A
C2727      C2728   1.399       .  A
C2727      C2732   1.407       .  A
C2727      H2734   1.084       .  S
C2728      C2729   1.407       .  A
C2729      C2730   1.395       .  A
C2730      C2731   1.402       .  A
C2730      H2735   1.085       .  S
C2731      C2732   1.420       .  A
C2732      N2733   1.435       .  S
N2733      O2737   1.262       .  A
N2733      O2738   1.263       .  A
N2736      O2740   1.262       .  A
N2736      O2739   1.262   1_554  A
C2741      C2742   1.398       .  A
C2741      C2746   1.396       .  A
C2741      H2748   1.085   1_554  S
C2742      C2743   1.406       .  A
C2743      C2744   1.398       .  A
C2743      N2750   1.433       .  S
C2744      C2745   1.402       .  A
C2744      H2749   1.082       .  S
C2745      C2746   1.413       .  A
C2746      N2747   1.429       .  S
N2747      O2752   1.262       .  A
N2750      O2754   1.262       .  A
N2750      O2753   1.263       .  A
C2755      C2756   1.401       .  A
C2755      C2760   1.398       .  A
C2755      H2762   1.084       .  S
C2756      C2757   1.410       .  A
C2757      C2758   1.402       .  A
C2757      N2764   1.430       .  S
C2758      C2759   1.407       .  A
C2758      H2763   1.083       .  S
C2759      C2760   1.415       .  A
C2760      N2761   1.429       .  S
N2761      O2765   1.262       .  A
N2761      O2766   1.262       .  A
N2764      O2768   1.262       .  A
N2764      O2767   1.262       .  A
C2769      C2770   1.400       .  A
C2769      C2774   1.402       .  A
C2769      H2776   1.084       .  S
C2770      C2771   1.409       .  A
C2771      C2772   1.400       .  A
C2771      N2778   1.430       .  S
C2772      C2773   1.403       .  A
C2772      H2777   1.084       .  S
C2773      C2774   1.411       .  A
C2774      N2775   1.434       .  S
N2775      O2779   1.262       .  A
N2775      O2780   1.262       .  A
N2778      O2782   1.262       .  A
N2778      O2781   1.262       .  A
C2783      C2784   1.405       .  A
C2783      H2790   1.083       .  S
C2784      C2785   1.412       .  A
C2785      C2786   1.402       .  A
C2785      N2792   1.432       .  S
C2786      H2791   1.084       .  S
C2787      C2788   1.412       .  A
C2788      N2789   1.431       .  S
N2789      O2793   1.262       .  A
N2789      O2794   1.262       .  A
N2792      O2796   1.262       .  A
N2792      O2795   1.262       .  A
C2797      C2798   1.406       .  A
C2797      C2802   1.402       .  A
C2797      H2804   1.083       .  S
C2798      C2799   1.405       .  A
C2799      C2800   1.393       .  A
C2799      N2806   1.436       .  S
C2800      C2801   1.410       .  A
C2800      H2805   1.084       .  S
C2801      C2802   1.408       .  A
C2802      N2803   1.427       .  S
N2803      O2807   1.262       .  A
N2803      O2808   1.261       .  A
N2806      O2810   1.262       .  A
N2806      O2809   1.262       .  A
C2811      C2812   1.398       .  A
C2811      C2816   1.385       .  A
C2811      H2818   1.085       .  S
C2812      C2813   1.408       .  A
C2813      C2814   1.409       .  A
C2813      N2820   1.428       .  S
C2814      C2815   1.406       .  A
C2814      H2819   1.083       .  S
C2815      C2816   1.410       .  A
C2816      N2817   1.432       .  S
N2817      O2821   1.262       .  A
N2817      O2822   1.262       .  A
N2820      O2824   1.262       .  A
N2820      O2823   1.262       .  A
C2825      C2826   1.401       .  A
C2825      C2830   1.411   1_565  A
C2825      H2832   1.084       .  S
C2826      C2827   1.410       .  A
C2827      C2828   1.403       .  A
C2827      N2834   1.431       .  S
C2828      H2833   1.084       .  S
N2831      O2835   1.262       .  A
N2831      O2836   1.262       .  A
N2834      O2838   1.262       .  A
N2834      O2837   1.262       .  A
C2839      C2840   1.402       .  A
C2840      C2841   1.412       .  A
C2841      C2842   1.394       .  A
C2841      N2848   1.432       .  S
C2842      C2843   1.400   1_655  A
C2842      H2847   1.083       .  S
C2844      N2845   1.429       .  S
N2845      O2849   1.262       .  A
N2845      O2850   1.262       .  A
N2848      O2852   1.262       .  A
N2848      O2851   1.262       .  A
C2853      C2854   1.404       .  A
C2853      C2858   1.394       .  A
C2853      H2860   1.084       .  S
C2854      C2855   1.409   1_655  A
C2856      H2861   1.083       .  S
C2857      C2858   1.402   1_455  A
C2858      N2859   1.429       .  S
N2859      O2863   1.262       .  A
N2859      O2864   1.262       .  A
N2862      O2866   1.262       .  A
C2867      C2868   1.407       .  A
C2867      C2872   1.407       .  A
C2868      C2869   1.414       .  A
C2869      C2870   1.396       .  A
C2869      N2876   1.429       .  S
C2870      C2871   1.405       .  A
C2870      H2875   1.084       .  S
C2871      C2872   1.415       .  A
N2873      O2877   1.262       .  A
N2873      O2878   1.262       .  A
N2876      O2880   1.262       .  A
N2876      O2879   1.262   1_655  A
C2881      C2882   1.405       .  A
C2881      C2886   1.396       .  A
C2881      H2888   1.085       .  S
C2882      C2883   1.408       .  A
C2883      C2884   1.401       .  A
C2883      N2890   1.430       .  S
C2884      C2885   1.408       .  A
C2884      H2889   1.084       .  S
C2885      C2886   1.408       .  A
C2886      N2887   1.429       .  S
N2887      O2891   1.262       .  A
N2887      O2892   1.262       .  A
N2890      O2894   1.262       .  A
N2890      O2893   1.262       .  A
C2895      C2896   1.406       .  A
C2895      C2900   1.398       .  A
C2895      H2902   1.084       .  S
C2896      C2897   1.407       .  A
C2897      C2898   1.400       .  A
C2897      N2904   1.429       .  S
C2898      C2899   1.408       .  A
C2898      H2903   1.083       .  S
C2899      C2900   1.407       .  A
C2900      N2901   1.429       .  S
N2901      O2905   1.262       .  A
N2901      O2906   1.262       .  A
N2904      O2908   1.262       .  A
N2904      O2907   1.262       .  A
C2909      C2910   1.409       .  A
C2909      C2914   1.403       .  A
C2909      H2916   1.083       .  S
C2910      C2911   1.419       .  A
C2911      C2912   1.402       .  A
C2911      N2918   1.429       .  S
C2912      C2913   1.404       .  A
C2912      H2917   1.084       .  S
C2913      C2914   1.413       .  A
C2914      N2915   1.429       .  S
N2915      O2919   1.262       .  A
N2915      O2920   1.262       .  A
N2918      O2922   1.262       .  A
N2918      O2921   1.262       .  A
C2923      C2924   1.410       .  A
C2923      C2928   1.405       .  A
C2923      H2930   1.083       .  S
C2924      C2925   1.416       .  A
C2925      C2926   1.396       .  A
C2925      N2932   1.429       .  S
C2926      C2927   1.402       .  A
C2926      H2931   1.084       .  S
C2927      C2928   1.410       .  A
C2928      N2929   1.429       .  S
N2929      O2933   1.262       .  A
N2929      O2934   1.262       .  A
N2932      O2936   1.262       .  A
N2932      O2935   1.262       .  A
C2937      C2938   1.405       .  A
C2937      C2942   1.402       .  A
C2937      H2944   1.084       .  S
C2938      C2939   1.417       .  A
C2939      C2940   1.401       .  A
C2939      N2946   1.431       .  S
C2940      C2941   1.405       .  A
C2940      H2945   1.083       .  S
C2941      C2942   1.417       .  A
N2943      O2948   1.262       .  A
N2946      O2950   1.262       .  A
N2946      O2949   1.262       .  A
C2951      C2952   1.400       .  A
C2951      C2956   1.399       .  A
C2951      H2958   1.084       .  S
C2952      C2953   1.411       .  A
C2953      C2954   1.414       .  A
C2953      N2960   1.428       .  S
C2954      C2955   1.409       .  A
C2954      H2959   1.084       .  S
C2955      C2956   1.415       .  A
C2956      N2957   1.432       .  S
N2957      O2961   1.262       .  A
N2957      O2962   1.262       .  A
N2960      O2964   1.262       .  A
N2960      O2963   1.262       .  A
C2965      C2966   1.404       .  A
C2965      C2970   1.403       .  A
C2965      H2972   1.084       .  S
C2966      C2967   1.413       .  A
C2967      C2968   1.401       .  A
C2967      N2974   1.429       .  S
C2968      C2969   1.406       .  A
C2968      H2973   1.083       .  S
C2969      C2970   1.416       .  A
C2970      N2971   1.429       .  S
N2971      O2975   1.262       .  A
N2971      O2976   1.262       .  A
N2974      O2978   1.262       .  A
N2974      O2977   1.262       .  A
C2979      C2980   1.399       .  A
C2979      C2984   1.403       .  A
C2979      H2986   1.084       .  S
C2980      C2981   1.412       .  A
C2981      C2982   1.396       .  A
C2981      N2988   1.431       .  S
C2982      C2983   1.402       .  A
C2982      H2987   1.084       .  S
C2983      C2984   1.421       .  A
C2984      N2985   1.431       .  S
N2985      O2989   1.262       .  A
N2985      O2990   1.262       .  A
N2988      O2992   1.262       .  A
N2988      O2991   1.262       .  A
C2993      C2994   1.403       .  A
C2993      C2998   1.406       .  A
C2993      H3000   1.084       .  S
C2994      C2995   1.413       .  A
C2995      C2996   1.400       .  A
C2995      N3002   1.429       .  S
C2996      C2997   1.400       .  A
C2996      H3001   1.084       .  S
C2997      C2998   1.412       .  A
C2998      N2999   1.437       .  S
N2999      O3003   1.262       .  A
N2999      O3004   1.263       .  A
N3002      O3006   1.261       .  A
N3002      O3005   1.262       .  A
C3007      C3012   1.396       .  A
C3007      H3014   1.084       .  S
C3008      C3009   1.411       .  A
C3009      C3010   1.413       .  A
C3009      N3016   1.432       .  S
C3010      C3011   1.408       .  A
C3010      H3015   1.083       .  S
C3012      N3013   1.427       .  S
N3013      O3017   1.262       .  A
N3013      O3018   1.262       .  A
N3016      O3020   1.262       .  A
N3016      O3019   1.262       .  A
C3021      C3026   1.402       .  A
C3021      H3028   1.083       .  S
C3022      C3023   1.421       .  A
C3023      C3024   1.396       .  A
C3023      N3030   1.429       .  S
C3024      C3025   1.400       .  A
C3024      H3029   1.084       .  S
C3026      N3027   1.429       .  S
N3027      O3031   1.262       .  A
N3027      O3032   1.262       .  A
N3030      O3034   1.262       .  A
N3030      O3033   1.262       .  A
C3035      C3036   1.398       .  A
C3035      C3040   1.394       .  A
C3035      H3042   1.077       .  S
C3036      C3037   1.409       .  A
C3037      C3038   1.401       .  A
C3037      N3044   1.435       .  S
C3038      C3039   1.403       .  A
C3038      H3043   1.084       .  S
C3039      C3040   1.403       .  A
C3040      N3041   1.429       .  S
N3041      O3045   1.262       .  A
N3041      O3046   1.262       .  A
N3044      O3048   1.262       .  A
N3044      O3047   1.262       .  A
C3049      H3056   1.085       .  S
C3050      C3051   1.406       .  A
C3051      C3052   1.403       .  A
C3051      N3058   1.428       .  S
C3052      C3053   1.405       .  A
C3052      H3057   1.084       .  S
C3053      C3054   1.410       .  A
C3054      N3055   1.430       .  S
N3055      O3060   1.262       .  A
N3058      O3062   1.262       .  A
N3058      O3061   1.262   1_655  A
C3063      C3064   1.402       .  A
C3063      C3068   1.401       .  A
C3063      H3070   1.083       .  S
C3064      C3065   1.403       .  A
C3065      C3066   1.397       .  A
C3065      N3072   1.429       .  S
C3066      C3067   1.405       .  A
C3066      H3071   1.085       .  S
C3067      C3068   1.408       .  A
C3068      N3069   1.429       .  S
N3069      O3073   1.262       .  A
N3069      O3074   1.262       .  A
N3072      O3076   1.261       .  A
N3072      O3075   1.262       .  A
C3077      C3078   1.405       .  A
C3077      C3082   1.398       .  A
C3077      H3084   1.083       .  S
C3078      C3079   1.416       .  A
C3079      C3080   1.405       .  A
C3079      N3086   1.429       .  S
C3080      C3081   1.407       .  A
C3080      H3085   1.083       .  S
C3081      C3082   1.417       .  A
C3082      N3083   1.429       .  S
N3083      O3087   1.262       .  A
N3083      O3088   1.262       .  A
N3086      O3090   1.262       .  A
N3086      O3089   1.262       .  A
C3091      C3092   1.404       .  A
C3091      C3096   1.396       .  A
C3091      H3098   1.084       .  S
C3092      C3093   1.411       .  A
C3093      C3094   1.401       .  A
C3093      N3100   1.431       .  S
C3094      C3095   1.403       .  A
C3094      H3099   1.084       .  S
C3095      C3096   1.406       .  A
C3096      N3097   1.432       .  S
N3097      O3101   1.262       .  A
N3097      O3102   1.262       .  A
N3100      O3104   1.262       .  A
N3100      O3103   1.262       .  A
C3105      C3110   1.405       .  A
C3105      H3112   1.084       .  S
C3106      C3107   1.418       .  A
C3107      N3114   1.433       .  S
C3108      C3109   1.395   1_455  A
C3108      H3113   1.083       .  S
C3109      C3110   1.412       .  A
C3110      N3111   1.430       .  S
N3111      O3115   1.262       .  A
N3111      O3116   1.262       .  A
N3114      O3118   1.263       .  A
N3114      O3117   1.262       .  A
C3119      C3120   1.406       .  A
C3119      C3124   1.398       .  A
C3119      H3126   1.084       .  S
C3120      C3121   1.414       .  A
C3121      C3122   1.407       .  A
C3122      C3123   1.409       .  A
C3122      H3127   1.083       .  S
C3123      C3124   1.416       .  A
C3124      N3125   1.429       .  S
N3125      O3129   1.262       .  A
N3125      O3130   1.262       .  A
N3128      O3131   1.262   1_455  A
