geometry optimzed in LAMMPS
_audit_creation_date              2020-11-30 
_audit_creation_method            'lammps2cif' 
_symmetry_space_group_name_H-M    'P1' 
_symmetry_Int_Tables_number       1 
_symmetry_cell_setting            triclinic 
loop_ 
_symmetry_equiv_pos_as_xyz 
  x,y,z 
_cell_length_a                    43.24688297 
_cell_length_b                    43.417098637478134 
_cell_length_c                    48.870752078547625 
_cell_angle_alpha                 90.45662424245764 
_cell_angle_beta                  88.80283304190402 
_cell_angle_gamma                 120.23772253919783 
loop_ 
_atom_site_label 
_atom_site_type_symbol 
_atom_site_fract_x 
_atom_site_fract_y 
_atom_site_fract_z 
_atom_site_charge 
C1          C  0.00849917  0.07527973  0.33150433     0.79700
N2          N  0.01302208  0.08280439  0.30429270    -0.78600
C3          C  0.04078578  0.08397382  0.28978486     0.82200
N4          N  0.06428770  0.07738800  0.30275192    -0.78500
C5          C  0.06045449  0.07010117  0.33004254     0.82300
N6          N  0.03277168  0.06952466  0.34453287    -0.80200
C7          C  0.06395324  0.43559453  0.33274765     0.79700
N8          N  0.06832213  0.42984111  0.30597338    -0.78600
C9          C  0.04267799  0.40096576  0.29253495     0.82200
N10         N  0.01225837  0.37743350  0.30618156    -0.78500
C11         C  0.00731020  0.38258310  0.33307148     0.82300
N12         N  0.03340558  0.41158028  0.34643236    -0.80200
C13         C  0.46189651  0.48315498  0.53208601     0.02600
C14         C  0.43548285  0.44796100  0.53877659    -0.13500
C15         C  0.44362024  0.42103509  0.53318001     0.00100
C16         C  0.47972157  0.43003288  0.53509843    -0.12000
C17         C  0.00845652  0.47022976  0.53128712     0.02600
C18         C  0.49667529  0.99770686  0.53751119    -0.11400
H19         H  0.40763509  0.44038698  0.53717199     0.08200
H20         H  0.99154587  0.41529120  0.53084779     0.05800
H21         H  0.01566281  0.02711862  0.53819446     0.05600
O22         O  0.34523075  0.02195289  0.33808419    -0.85800
O23         O  0.39744586  0.09169676  0.34312584    -0.82900
C24         C  0.42248197  0.11992572  0.35301198     0.97600
O25         O  0.44641324  0.11831898  0.36628690    -0.82900
O26         O  0.40833484  0.09108548  0.41602462    -0.85600
C27         C  0.38498947  0.06752336  0.43195808     1.02200
O28         O  0.37049305  0.03472850  0.42645368    -0.78300
O29         O  0.33047396  0.01352462  0.38156860    -0.78500
C30         C  0.32357292  0.01741810  0.35746862     1.02100
O31         O  0.39940942  0.00212142  0.33225902    -0.85800
O32         O  0.45255918  0.07233199  0.33201554    -0.82900
C33         C  0.47684391  0.07191508  0.34595026     0.97700
O34         O  0.47395576  0.06996344  0.37170033    -0.82900
O35         O  0.44129558  0.05137516  0.42281159    -0.85500
C36         C  0.42720716  0.01860396  0.42741434     1.02100
O37         O  0.40410250  0.99590840  0.41166580    -0.78300
O38         O  0.36140764  0.47156280  0.36592039    -0.78500
C39         C  0.37978836  0.47371741  0.34471274     1.02100
Cr40       Cr  0.39906552  0.04686936  0.33935616     1.93700
Cr41       Cr  0.43956568  0.07975591  0.39237243     1.93200
Cr42       Cr  0.36941351  0.00641027  0.39430623     1.39100
O43         O  0.40254558  0.04396104  0.37545789    -1.23600
O44         O  0.39652596  0.25595519  0.34466735    -0.85800
O45         O  0.34247856  0.27072057  0.34018307    -0.82900
C46         C  0.31966741  0.25773893  0.35962112     0.97600
O47         O  0.32747967  0.27035397  0.38331541    -0.82900
O48         O  0.36993377  0.28735492  0.42700146    -0.85600
C49         C  0.38419085  0.26849556  0.43144943     1.02200
O50         O  0.40762347  0.26886658  0.41521325    -0.78300
O51         O  0.44678698  0.28180055  0.36601641    -0.78500
C52         C  0.42287524  0.25474612  0.35392598     1.02100
O53         O  0.44964899  0.33107179  0.33259339    -0.85800
O54         O  0.39463065  0.34549866  0.33210208    -0.82900
C55         C  0.37696198  0.35757040  0.34440038     0.97700
O56         O  0.36163053  0.34491725  0.36724498    -0.82900
O57         O  0.40564829  0.36082266  0.41007173    -0.85500
C58         C  0.42392195  0.35889942  0.42876995     1.02100
O59         O  0.43879187  0.34073353  0.42497914    -0.78300
O60         O  0.47140920  0.35631702  0.37229074    -0.78500
C61         C  0.47434717  0.35586691  0.34651941     1.02100
Cr62       Cr  0.39624499  0.30145182  0.34021749     1.93700
Cr63       Cr  0.36864299  0.31539143  0.39518266     1.93200
Cr64       Cr  0.43827923  0.31208107  0.39279962     1.39100
O65         O  0.40053131  0.30942052  0.37603730    -1.23600
O66         O  0.17543849  0.10050517  0.33860358    -0.85800
O67         O  0.19085775  0.04782625  0.34247790    -0.82900
C68         C  0.19262385  0.02158970  0.35099639     0.97600
O69         O  0.16602707  0.99693568  0.36344650    -0.82900
O70         O  0.17971438  0.03719727  0.41226360    -0.85600
C71         C  0.17913182  0.05974709  0.42870295     1.02200
O72         O  0.15810015  0.07179417  0.42540999    -0.78300
O73         O  0.17312051  0.11448721  0.38150690    -0.78500
C74         C  0.18730285  0.12273816  0.35798103     1.02100
O75         O  0.10087684  0.04873666  0.33089010    -0.85800
O76         O  0.11499007  0.99388859  0.33185549    -0.82900
C77         C  0.09270314  0.46763855  0.34648396     0.97700
O78         O  0.09338470  0.46961918  0.37228659    -0.82900
O79         O  0.10742430  0.00267756  0.42425310    -0.85500
C80         C  0.08542753  0.01307357  0.42803434     1.02100
O81         O  0.08357599  0.03364686  0.41106654    -0.78300
O82         O  0.09829266  0.07797825  0.36710469    -0.78500
C83         C  0.08765997  0.06494640  0.34362200     1.02100
Cr84       Cr  0.14480483  0.04710276  0.33881821     1.93700
Cr85       Cr  0.13602340  0.00497732  0.39134018     1.93200
Cr86       Cr  0.12879451  0.07200576  0.39442142     1.39100
O87         O  0.13646839  0.04181281  0.37477070    -1.23600
C88         C  0.37294564  0.38577125  0.33091661     0.79700
N89         N  0.37708327  0.41513689  0.34466269    -0.78600
C90         C  0.37446248  0.44107705  0.33093233     0.82200
N91         N  0.36634471  0.43680455  0.30393667    -0.78500
C92         C  0.36097864  0.40710972  0.29051782     0.82300
N93         N  0.36462768  0.38197881  0.30406166    -0.80200
C94         C  0.17608340  0.39902013  0.16136514     0.79700
N95         N  0.18013317  0.40392308  0.13396630    -0.78600
C96         C  0.21014903  0.40893969  0.12074001     0.82200
N97         N  0.23608711  0.40787659  0.13516617    -0.78500
C98         C  0.23209132  0.40202847  0.16270425     0.82300
N99         N  0.20235413  0.39850428  0.17593432    -0.80200
C100        C  0.04581955  0.27221163  0.16276191     0.79700
N101        N  0.04895476  0.24579898  0.17508204    -0.78600
C102        C  0.04773364  0.21866876  0.15974370     0.82200
N103        N  0.54122539  0.21651753  0.13277927    -0.78500
C104        C  0.53679450  0.24173690  0.12030183     0.82300
N105        N  0.53842414  0.26898595  0.13549371    -0.80200
C106        C  0.14024671  0.32351668  0.36265712     0.02600
C107        C  0.11056359  0.28897221  0.36630972    -0.13500
C108        C  0.11560461  0.25991619  0.36133388     0.00100
C109        C  0.14993070  0.26485270  0.36558457    -0.12000
C110        C  0.17949683  0.29927927  0.36193393     0.02600
C111        C  0.17423906  0.32824228  0.36739877    -0.11400
H112        H  0.08410099  0.28460322  0.36237111     0.08200
H113        H  0.15443968  0.24293179  0.36110446     0.05800
H114        H  0.19660409  0.35502032  0.36447558     0.05600
O115        O  0.02421220  0.37961275  0.17856753    -0.85800
O116        O  0.09293974  0.43365654  0.17187118    -0.82900
C117        C  0.10120097  0.45566540  0.19137929     0.97600
O118        O  0.10661729  0.44772333  0.21471457    -0.82900
O119        O  0.08477386  0.40646406  0.25951069    -0.85600
C120        C  0.05175768  0.39187905  0.26560702     1.02200
O121        O  0.02812694  0.36797791  0.25047076    -0.78300
O122        O  0.50045123  0.33142859  0.20123774    -0.78500
C123        C  0.49790186  0.35547672  0.18882428     1.02100
O124        O  0.04564333  0.32691289  0.16532287    -0.85800
O125        O  0.11483584  0.38050905  0.16329705    -0.82900
C126        C  0.14464969  0.39757824  0.17477101     0.97700
O127        O  0.14821340  0.41480257  0.19657272    -0.82900
O128        O  0.12312769  0.37228535  0.24095869    -0.85500
C129        C  0.10261520  0.35229696  0.25954260     1.02100
O130        O  0.06936539  0.33696630  0.25661274    -0.78300
O131        O  0.05059288  0.30482111  0.20420964    -0.78500
C132        C  0.04763965  0.30277125  0.17840779     1.02100
Cr133      Cr  0.06984183  0.37990851  0.17266480     1.93700
Cr134      Cr  0.11264779  0.40784283  0.22613840     1.93200
Cr135      Cr  0.03988065  0.33766850  0.22631655     1.39100
O136        O  0.07430840  0.37556600  0.20843171    -1.23600
O137        O  0.06820445  0.08713464  0.17522289    -0.85800
O138        O  0.01483396  0.10239296  0.16753772    -0.82900
C139        C  0.49163922  0.08793961  0.18637089     0.97600
O140        O  0.49751433  0.09931381  0.21048308    -0.82900
O141        O  0.03526000  0.11879109  0.25630346    -0.85600
C142        C  0.04972714  0.10070991  0.26248028     1.02200
O143        O  0.07417154  0.10096854  0.24737423    -0.78300
O144        O  0.11631447  0.11280335  0.19946131    -0.78500
C145        C  0.09387872  0.08606854  0.18600772     1.02100
O146        O  0.12178585  0.16204933  0.16449997    -0.85800
O147        O  0.06805074  0.17736694  0.16136619    -0.82900
C148        C  0.04926944  0.18888630  0.17255165     0.97700
O149        O  0.03070121  0.17447165  0.19390823    -0.82900
O150        O  0.07054116  0.19176155  0.23934795    -0.85500
C151        C  0.08971461  0.19137977  0.25806465     1.02100
O152        O  0.10476068  0.17320240  0.25535102    -0.78300
O153        O  0.14086941  0.18828045  0.20415779    -0.78500
C154        C  0.14464801  0.18822110  0.17841007     1.02100
Cr155      Cr  0.06829737  0.13282285  0.17005922     1.93700
Cr156      Cr  0.03601826  0.14575011  0.22320311     1.93200
Cr157      Cr  0.10635806  0.14380455  0.22462973     1.39100
O158        O  0.06975540  0.14054336  0.20600037    -1.23600
O159        O  0.36140267  0.42592412  0.17783881    -0.85800
O160        O  0.34847624  0.35819073  0.17286463    -0.82900
C161        C  0.36039618  0.34956077  0.19310242     0.97600
O162        O  0.34405616  0.34234182  0.21567628    -0.82900
O163        O  0.32341269  0.36474136  0.25919694    -0.85600
C164        C  0.34308480  0.39773890  0.26408837     1.02200
O165        O  0.34386092  0.42128794  0.24835951    -0.78300
O166        O  0.33376700  0.44909978  0.19955086    -0.78500
C167        C  0.36119370  0.45305254  0.18673200     1.02100
O168        O  0.28711956  0.40273878  0.16442746    -0.85800
O169        O  0.27320162  0.33449588  0.16260580    -0.82900
C170        C  0.25916194  0.30475549  0.17462838     0.97700
O171        O  0.27062616  0.30124468  0.19722921    -0.82900
O172        O  0.25092630  0.32700075  0.23983527    -0.85500
C173        C  0.25137710  0.34648342  0.25895182     1.02100
O174        O  0.27083841  0.37972285  0.25657338    -0.78300
O175        O  0.25892727  0.39804491  0.20370061    -0.78500
C176        C  0.26060308  0.40068599  0.17784101     1.02100
Cr177      Cr  0.31669107  0.37987541  0.17224399     1.93700
Cr178      Cr  0.29787316  0.33672945  0.22622883     1.93200
Cr179      Cr  0.30187509  0.40931425  0.22526734     1.39100
O180        O  0.30573376  0.37509319  0.20784540    -1.23600
C181        C  0.17563303  0.21782690  0.16357924     0.79700
N182        N  0.20193791  0.24708211  0.17646791    -0.78600
C183        C  0.22963750  0.27343407  0.16144386     0.82200
N184        N  0.23120497  0.27007171  0.13387097    -0.78500
C185        C  0.20561359  0.24076798  0.12108383     0.82300
N186        N  0.17812168  0.21493422  0.13607860    -0.80200
C187        C  0.39652189  0.10631094  0.00086657     0.79700
N188        N  0.40140015  0.10445718  0.47342791    -0.78600
C189        C  0.37673844  0.07583063  0.45935558     0.82200
N190        N  0.34826271  0.04943200  0.47302072    -0.78500
C191        C  0.34352074  0.04963306  0.00076070     0.82300
N192        N  0.36826308  0.07895308  0.01477339    -0.80200
C193        C  0.33949452  0.23624049  0.99903050     0.79700
N194        N  0.34684303  0.24641303  0.47208740    -0.78600
C195        C  0.37573463  0.25013287  0.45795962     0.82200
N196        N  0.40008259  0.24478585  0.47098523    -0.78500
C197        C  0.39335649  0.23487691  0.99770917     0.82300
N198        N  0.36456449  0.23189038  0.01214295    -0.80200
C199        C  0.30953874  0.16278037  0.19530859     0.02600
C200        C  0.29499422  0.12588375  0.19353452    -0.13500
C201        C  0.31769696  0.11295962  0.18684546     0.00100
C202        C  0.35421263  0.13392233  0.19153163    -0.12000
C203        C  0.36978289  0.17087926  0.19674920     0.02600
C204        C  0.34596617  0.18367435  0.20243389    -0.11400
H205        H  0.26730469  0.10922576  0.18788546     0.08200
H206        H  0.37036897  0.12257697  0.18493199     0.05800
H207        H  0.35622450  0.21164899  0.20593526     0.05600
O208        O  0.01584398  0.26887542  0.00337754    -0.85800
O209        O  0.02630945  0.21355806  0.00957280    -0.82900
C210        C  0.02556921  0.18646637  0.01911177     0.97600
O211        O  0.99793774  0.16410611  0.03182743    -0.82900
O212        O  0.01757156  0.20930925  0.07884480    -0.85600
C213        C  0.02081616  0.23535668  0.09341258     1.02200
O214        O  0.00369945  0.25137441  0.08846597    -0.78300
O215        O  0.00717292  0.28808820  0.04249678    -0.78500
C216        C  0.02378396  0.29386154  0.02002194     1.02100
O217        O  0.44155418  0.22201440  0.49805511    -0.85800
O218        O  0.45027906  0.16352969  0.50039833    -0.82900
C219        C  0.42485897  0.13844566  0.01483621     0.97700
O220        O  0.42602687  0.14110764  0.04077059    -0.82900
O221        O  0.44778317  0.17443850  0.09338232    -0.85500
C222        C  0.43324004  0.19148757  0.10120991     1.02100
O223        O  0.42629810  0.20802816  0.08366206    -0.78300
O224        O  0.42965012  0.24226847  0.03567470    -0.78500
C225        C  0.42176841  0.23181782  0.01122947     1.02100
Cr226      Cr  0.98196093  0.21656330  0.00603284     1.93700
Cr227      Cr  0.47205183  0.17533007  0.05876868     1.93200
Cr228      Cr  0.46624675  0.24372697  0.06079288     1.39100
O229        O  0.47303027  0.21225731  0.04173393    -1.23600
O230        O  0.23481754  0.42074614  0.00700163    -0.85800
O231        O  0.18227351  0.43797882  0.00229289    -0.82900
C232        C  0.15888071  0.42349606  0.02127258     0.97600
O233        O  0.16698556  0.43231649  0.04567239    -0.82900
O234        O  0.20610421  0.44761367  0.09057970    -0.85600
C235        C  0.21900205  0.42748367  0.09439036     1.02200
O236        O  0.24229797  0.42768705  0.07811503    -0.78300
O237        O  0.28395555  0.44352120  0.02983868    -0.78500
C238        C  0.26043999  0.41819342  0.01591065     1.02100
O239        O  0.28947448  0.49589058  0.49985330    -0.85800
O240        O  0.23672315  0.51219274  0.49855931    -0.82900
C241        C  0.21707723  0.52122427  0.00955895     0.97700
O242        O  0.19994265  0.50673541  0.03147209    -0.82900
O243        O  0.24619379  0.02372838  0.07712620    -0.85500
C244        C  0.26635408  0.02144233  0.09402978     1.02100
O245        O  0.27625336  0.99904695  0.09099272    -0.78300
O246        O  0.30970451  0.51824551  0.03997217    -0.78500
C247        C  0.31365397  0.52069350  0.01430036     1.02100
Cr248      Cr  0.23650280  0.46691591  0.00440780     1.93700
Cr249      Cr  0.20620721  0.47678206  0.05934824     1.93200
Cr250      Cr  0.27489542  0.47234278  0.05784536     1.39100
O251        O  0.23887459  0.47206035  0.04051675    -1.23600
O252        O  0.17715693  0.18842704  0.00431360    -0.85800
O253        O  0.23104532  0.25605232  0.00842090    -0.82900
C254        C  0.25796208  0.28386236  0.01679777     0.97600
O255        O  0.28080201  0.28067891  0.02978737    -0.82900
O256        O  0.23689828  0.25434842  0.07796475    -0.85600
C257        C  0.21362253  0.23102962  0.09423190     1.02200
O258        O  0.20077869  0.19788767  0.09032097    -0.78300
O259        O  0.16100563  0.16809134  0.04604043    -0.78500
C260        C  0.15398328  0.17635155  0.02339679     1.02100
O261        O  0.22745032  0.16374469  0.99624233    -0.85800
O262        O  0.28327159  0.23224761  0.99829411    -0.82900
C263        C  0.30755573  0.23292486  0.01302998     0.97700
O264        O  0.30487651  0.23221588  0.03885971    -0.82900
O265        O  0.27129746  0.21858037  0.09007604    -0.85500
C266        C  0.26105108  0.18679728  0.09520340     1.02100
O267        O  0.24017174  0.16252596  0.07941487    -0.78300
O268        O  0.20117207  0.13209979  0.03344610    -0.78500
C269        C  0.21383716  0.13481139  0.00947584     1.02100
Cr270      Cr  0.23014919  0.20979358  0.00479560     1.93700
Cr271      Cr  0.27031112  0.24320308  0.05739674     1.93200
Cr272      Cr  0.20326150  0.16818780  0.06019875     1.39100
O273        O  0.23414237  0.20638835  0.04072829    -1.23600
C274        C  0.21390193  0.05012558  0.99595070     0.79700
N275        N  0.20325103  0.04446136  0.46783165    -0.78600
C276        C  0.19865884  0.06908268  0.45446249     0.82200
N277        N  0.20332137  0.09842784  0.46809754    -0.78500
C278        C  0.21150750  0.10329684  0.99582308     0.82300
N279        N  0.21611440  0.07873259  0.00960442    -0.80200
C280        C  0.26258723  0.38532905  0.01125373    -0.00600
C281        C  0.29084195  0.38327510  0.02303229    -0.12500
C282        C  0.29123549  0.35128287  0.02358822     0.01600
C283        C  0.26242218  0.31984576  0.01242205    -0.00700
C284        C  0.23583727  0.32263877  0.99851329    -0.12400
C285        C  0.23583578  0.35490120  0.99754500     0.01500
H286        H  0.31229847  0.40651824  0.03283189     0.14500
H287        H  0.21422514  0.29923134  0.98899852     0.14500
C288        C  0.20763882  0.35541062  0.98261306     0.36100
C289        C  0.32119979  0.35182900  0.03663988     0.36000
N290        N  0.18508986  0.35555271  0.97037695    -0.44200
N291        N  0.34529571  0.35253678  0.04713630    -0.44200
C292        C  0.05686671  0.18107201  0.01735064    -0.00600
C293        C  0.06035413  0.16101478  0.03819148    -0.12500
C294        C  0.09055964  0.15738395  0.03975635     0.01600
C295        C  0.11866389  0.17411092  0.01998516    -0.00700
C296        C  0.11425168  0.19257672  0.99818593    -0.12400
C297        C  0.08378584  0.19618598  0.99673812     0.01500
H298        H  0.03981036  0.14898418  0.05411084     0.14500
H299        H  0.13519553  0.20534403  0.98265954     0.14500
C300        C  0.08062590  0.21493565  0.97369365     0.36100
C301        C  0.09188072  0.13695835  0.06246016     0.36000
N302        N  0.08481498  0.23862609  0.45945393    -0.44200
N303        N  0.09279700  0.12073271  0.08078865    -0.44200
C304        C  0.05464859  0.33053078  0.01469075    -0.00600
C305        C  0.06081002  0.35703524  0.03403739    -0.12500
C306        C  0.09343411  0.38891276  0.03482714     0.01600
C307        C  0.12136748  0.39505773  0.01601444    -0.00700
C308        C  0.11363429  0.37100379  0.99430360    -0.12400
C309        C  0.08042227  0.33901541  0.99331633     0.01500
H310        H  0.04072075  0.35220522  0.04971500     0.14500
H311        H  0.13414129  0.37618225  0.97895347     0.14500
C312        C  0.07401822  0.31538357  0.97050113     0.36100
C313        C  0.09769412  0.41417001  0.05600489     0.36000
N314        N  0.06671982  0.29882529  0.44985097    -0.44200
N315        N  0.10102399  0.43419234  0.07307678    -0.44200
C316        C  0.29522470  0.17735138  0.17449626    -0.00600
C317        C  0.31951745  0.19995900  0.15432480    -0.12500
C318        C  0.30888468  0.20143545  0.12805829     0.01600
C319        C  0.27273565  0.18021277  0.12119791    -0.00700
C320        C  0.24732396  0.16108564  0.14193300    -0.12400
C321        C  0.25827363  0.16039562  0.16869192     0.01500
H322        H  0.34774672  0.21384390  0.15775654     0.14500
H323        H  0.21900982  0.14781512  0.13747239     0.14500
C324        C  0.23146485  0.14231131  0.18990445     0.36100
C325        C  0.33610384  0.22392119  0.10808116     0.36000
N326        N  0.21015396  0.12805360  0.20707588    -0.44200
N327        N  0.35791950  0.24184621  0.09217110    -0.44200
C328        C  0.30659511  0.08792182  0.16366765    -0.00600
C329        C  0.27719579  0.05351592  0.16689460    -0.12500
C330        C  0.26198160  0.03206864  0.14395953     0.01600
C331        C  0.27824626  0.04403539  0.11793651    -0.00700
C332        C  0.30743099  0.07788580  0.11466503    -0.12400
C333        C  0.32007879  0.10058831  0.13686489     0.01500
H334        H  0.26454770  0.04462615  0.18691908     0.14500
H335        H  0.31859894  0.08744538  0.09429411     0.14500
C336        C  0.34087005  0.13761789  0.13001478     0.36100
C337        C  0.21811631  0.49739523  0.14452571     0.36000
N338        N  0.35514206  0.16651236  0.12196444    -0.44200
N339        N  0.18906134  0.47372073  0.14558990    -0.44200
C340        C  0.42988954  0.19602980  0.13120203    -0.00600
C341        C  0.42356017  0.22307177  0.14045267    -0.12500
C342        C  0.41377180  0.22366579  0.16786002     0.01600
C343        C  0.40737405  0.19521036  0.18544261    -0.00700
C344        C  0.42764787  0.17892095  0.17898396    -0.12400
C345        C  0.43578476  0.17620187  0.15141834     0.01500
H346        H  0.42431653  0.24243351  0.12616002     0.14500
H347        H  0.42912419  0.16137589  0.19388268     0.14500
C348        C  0.44718541  0.15091347  0.14477173     0.36100
C349        C  0.40851675  0.25235123  0.17657115     0.36000
N350        N  0.45613785  0.13045850  0.13965979    -0.44200
N351        N  0.40275454  0.27470852  0.18277403    -0.44200
C352        C  0.39300436  0.48953254  0.18318564    -0.00600
C353        C  0.39410783  0.01664893  0.19292028    -0.12500
C354        C  0.42488335  0.05036560  0.19325063     0.01600
C355        C  0.45687362  0.05570600  0.18069142    -0.00700
C356        C  0.45651089  0.02751204  0.16624047    -0.12400
C357        C  0.42370022  0.49678881  0.16716248     0.01500
H358        H  0.37019737  0.01301638  0.20349399     0.14500
H359        H  0.48098171  0.03150895  0.15650217     0.14500
C360        C  0.42510810  0.46998991  0.15035428     0.36100
C361        C  0.42318442  0.07878928  0.20745908     0.36000
N362        N  0.42658433  0.44871074  0.13686935    -0.44200
N363        N  0.42175895  0.10141490  0.21901842    -0.44200
C364        C  0.39478867  0.34913286  0.19126865    -0.00600
C365        C  0.41628919  0.36116415  0.16727814    -0.12500
C366        C  0.45001932  0.36361419  0.16577800     0.01600
C367        C  0.46288838  0.35397966  0.18860019    -0.00700
C368        C  0.44175793  0.34236559  0.21253225    -0.12400
C369        C  0.40808049  0.33938148  0.21406793     0.01500
H370        H  0.40692676  0.36894897  0.14967419     0.14500
H371        H  0.45147653  0.33503725  0.23021079     0.14500
C372        C  0.38796839  0.32541607  0.23940309     0.36100
C373        C  0.47035908  0.37507195  0.14040090     0.36000
N374        N  0.37197881  0.31411946  0.25970083    -0.44200
N375        N  0.48660460  0.38416735  0.12001759    -0.44200
C376        C  0.10320779  0.49086731  0.18773504    -0.00600
C377        C  0.08020126  0.99314477  0.16854836    -0.12500
C378        C  0.07690471  0.02381660  0.16711062     0.01600
C379        C  0.09810567  0.05377632  0.18389062    -0.00700
C380        C  0.12347206  0.05233731  0.20061718    -0.12400
C381        C  0.12406501  0.52012712  0.20510345     0.01500
H382        H  0.06459375  0.47214919  0.15549233     0.14500
H383        H  0.14028561  0.07479959  0.21353587     0.14500
C384        C  0.14892895  0.51973372  0.22421674     0.36100
C385        C  0.05137120  0.02330635  0.14830996     0.36000
N386        N  0.16879436  0.51953085  0.23962185    -0.44200
N387        N  0.03096679  0.02242730  0.13292208    -0.44200
C388        C  0.09619006  0.23660725  0.33758802    -0.00600
C389        C  0.09224223  0.25314305  0.31406995    -0.12500
C390        C  0.08948342  0.23876563  0.28799863     0.01600
C391        C  0.09025480  0.20703184  0.28499759    -0.00700
C392        C  0.08947448  0.18812287  0.30854434    -0.12400
C393        C  0.09173163  0.20229374  0.33471238     0.01500
H394        H  0.09461799  0.27906632  0.31538470     0.14500
H395        H  0.08764242  0.16236294  0.30650138     0.14500
C396        C  0.09094223  0.18188249  0.35816934     0.36100
C397        C  0.08890853  0.25849549  0.26454384     0.36000
N398        N  0.09016329  0.16534911  0.37690109    -0.44200
N399        N  0.08845489  0.27394176  0.24551677    -0.44200
C400        C  0.20418736  0.30460236  0.33813451    -0.00600
C401        C  0.18908038  0.28424200  0.31422432    -0.12500
C402        C  0.20399906  0.29706269  0.28831403     0.01600
C403        C  0.23482965  0.33088616  0.28577373    -0.00700
C404        C  0.25264467  0.34903967  0.30962839    -0.12400
C405        C  0.23810620  0.33567445  0.33565598     0.01500
H406        H  0.16379410  0.25953358  0.31515952     0.14500
H407        H  0.27799431  0.37384127  0.30797743     0.14500
C408        C  0.25771064  0.35488494  0.35948526     0.36100
C409        C  0.18590386  0.27590229  0.26466614     0.36000
N410        N  0.27350494  0.37021585  0.37857906    -0.44200
N411        N  0.17173115  0.25904248  0.24561773    -0.44200
C412        C  0.13750283  0.34435634  0.33943456    -0.00600
C413        C  0.16045030  0.35147633  0.31626866    -0.12500
C414        C  0.15013693  0.35488645  0.29011094     0.01600
C415        C  0.11637590  0.35128337  0.28664968    -0.00700
C416        C  0.09584638  0.34949403  0.30998774    -0.12400
C417        C  0.10666198  0.34707777  0.33625900     0.01500
H418        H  0.18525137  0.35142979  0.31785372     0.14500
H419        H  0.07106084  0.34970989  0.30772664     0.14500
C420        C  0.08516617  0.34623820  0.35954726     0.36100
C421        C  0.17357265  0.35991877  0.26699248     0.36000
N422        N  0.06803992  0.34590349  0.37817580    -0.44200
N423        N  0.19185332  0.36425167  0.24806735    -0.44200
C424        C  0.28356577  0.22608748  0.35525763    -0.00600
C425        C  0.27998400  0.19935162  0.33699869    -0.12500
C426        C  0.24825115  0.16602386  0.33630438     0.01600
C427        C  0.21899015  0.15911609  0.35388714    -0.00700
C428        C  0.22179739  0.18685464  0.37063528    -0.12400
C429        C  0.25347670  0.21993784  0.37149724     0.01500
H430        H  0.30284633  0.20359745  0.32451652     0.14500
H431        H  0.19943521  0.18227885  0.38389914     0.14500
C432        C  0.25438743  0.24681773  0.38965953     0.36100
C433        C  0.24783327  0.13862879  0.31911967     0.36000
N434        N  0.25499259  0.26821723  0.40427624    -0.44200
N435        N  0.24781076  0.11679011  0.30537205    -0.44200
C436        C  0.42399307  0.15503865  0.34990673    -0.00600
C437        C  0.45210810  0.18530165  0.36228214    -0.12500
C438        C  0.45312636  0.21809573  0.36304140     0.01600
C439        C  0.42543682  0.22163876  0.35109051    -0.00700
C440        C  0.39818372  0.19184168  0.33755545    -0.12400
C441        C  0.39724043  0.15898091  0.33675740     0.01500
H442        H  0.47318376  0.18324318  0.37223225     0.14500
H443        H  0.37687223  0.19387011  0.32798806     0.14500
C444        C  0.36801528  0.12987183  0.32263217     0.36100
C445        C  0.48254429  0.24699669  0.37718364     0.36000
N446        N  0.34453223  0.10668354  0.31124254    -0.44200
N447        N  0.50616925  0.26984976  0.38869455    -0.44200
C448        C  0.22662956  0.02122720  0.34886491    -0.00600
C449        C  0.25672040  0.04939848  0.36103595    -0.12500
C450        C  0.28833841  0.04839671  0.36362404     0.01600
C451        C  0.29099328  0.01957166  0.35272329    -0.00700
C452        C  0.26144757  0.99202264  0.33930716    -0.12400
C453        C  0.22909807  0.99236988  0.33773241     0.01500
H454        H  0.25487918  0.07142107  0.36992955     0.14500
H455        H  0.26953687  0.47778523  0.32715822     0.14500
C456        C  0.20619632  0.47238083  0.31838353     0.36100
C457        C  0.31736961  0.07678697  0.37847978     0.36000
N458        N  0.18398522  0.45174366  0.30445457    -0.47800
N459        N  0.34043954  0.09942966  0.39057980    -0.44200
C460        C  0.42348710  0.39578895  0.51049592    -0.00600
C461        C  0.41309185  0.40914588  0.48836044    -0.12500
C462        C  0.41310199  0.39774331  0.46165082     0.01600
C463        C  0.42243593  0.37151781  0.45664305    -0.00700
C464        C  0.42622294  0.35361150  0.47915652    -0.12400
C465        C  0.42566835  0.36487419  0.50598364     0.01500
H466        H  0.40804719  0.43086375  0.49114559     0.14500
H467        H  0.42978717  0.33085189  0.47586446     0.14500
C468        C  0.43357183  0.34785170  0.02884727     0.36100
C469        C  0.40501318  0.41453271  0.43974771     0.36000
N470        N  0.43802576  0.33328011  0.04672623    -0.44200
N471        N  0.39823879  0.42730714  0.42188279    -0.44200
C472        C  0.03237653  0.47812650  0.50648605    -0.00600
C473        C  0.01767113  0.45677693  0.48290261    -0.12500
C474        C  0.03391094  0.46771408  0.45709499     0.01600
C475        C  0.06527056  0.00393550  0.45403171    -0.00700
C476        C  0.08447963  0.01375132  0.47858938    -0.12400
C477        C  0.06659300  0.00473549  0.50409826     0.01500
H478        H  0.99237603  0.43211819  0.48409859     0.14500
H479        H  0.11352071  0.02870283  0.47778902     0.14500
C480        C  0.08704782  0.01556997  0.52882087     0.36100
C481        C  0.01800933  0.44459436  0.43386802     0.36000
N482        N  0.09837847  0.05381793  0.04612054    -0.44200
N483        N  0.00556654  0.42615325  0.41518660    -0.44200
C484        C  0.43538938  0.00873816  0.45373569    -0.00600
C485        C  0.40915783  0.99678205  0.47470165    -0.12500
C486        C  0.42186683  0.49741529  0.50326325     0.01600
C487        C  0.45469771  0.49834688  0.50703832    -0.00700
C488        C  0.47766711  0.50575750  0.48383871    -0.12400
C489        C  0.47106921  0.02130885  0.46058822     0.01500
H490        H  0.38228046  0.99081165  0.47001174     0.14500
H491        H  0.50352608  0.50809537  0.48550144     0.14500
C492        C  0.49966529  0.03751964  0.44028693     0.36100
C493        C  0.39818126  0.49326435  0.52597937     0.36000
N494        N  0.52246264  0.05064245  0.42399641    -0.44200
N495        N  0.37235627  0.48252109  0.04119222    -0.44200
C496        C  0.00900321  0.07431434  0.83279849     0.79700
N497        N  0.01409379  0.08263447  0.80570851    -0.78600
C498        C  0.04207473  0.08409184  0.79130698     0.82200
N499        N  0.06523501  0.07701826  0.80424574    -0.78500
C500        C  0.06090218  0.06900545  0.83140727     0.82300
N501        N  0.03300663  0.06813510  0.84582759    -0.80200
C502        C  0.06265306  0.43321238  0.83280576     0.79700
N503        N  0.06660335  0.42814468  0.80580267    -0.78600
C504        C  0.04052980  0.39995949  0.79203427     0.82200
N505        N  0.01008430  0.37638238  0.80559618    -0.78500
C506        C  0.00551309  0.38091503  0.83267503     0.82300
N507        N  0.03201040  0.40924142  0.84635542    -0.80200
C508        C  0.46111775  0.48421274  0.03347973     0.02600
C509        C  0.43511675  0.44840221  0.03913842    -0.13500
C510        C  0.44420545  0.42213240  0.03336574     0.00100
C511        C  0.48060800  0.43213047  0.03505167    -0.12000
C512        C  0.00744228  0.47032334  0.03136125     0.02600
C513        C  0.49808907  0.99752141  0.03760233    -0.11400
H514        H  0.40710494  0.44007106  0.03775064     0.08200
H515        H  0.99182880  0.41614515  0.02755120     0.05800
H516        H  0.01696566  0.02629757  0.03545836     0.05600
O517        O  0.34494550  0.01983021  0.83847181    -0.85800
O518        O  0.39624665  0.09002231  0.84368004    -0.82900
C519        C  0.42123494  0.11829059  0.85357812     0.97600
O520        O  0.44539394  0.11681842  0.86660295    -0.82900
O521        O  0.40697190  0.08983152  0.91617556    -0.85600
C522        C  0.38377574  0.06620611  0.93214124     1.02200
O523        O  0.36969082  0.03337512  0.92681391    -0.78300
O524        O  0.32988064  0.01125761  0.88190305    -0.78500
C525        C  0.32309920  0.01505048  0.85775700     1.02100
O526        O  0.40016397  0.00142495  0.83314971    -0.85800
O527        O  0.45221483  0.07186201  0.83295565    -0.82900
C528        C  0.47630902  0.07116811  0.84692304     0.97700
O529        O  0.47328316  0.06902053  0.87266501    -0.82900
O530        O  0.44049251  0.05089576  0.92383550    -0.85500
C531        C  0.42683612  0.01815943  0.92826404     1.02100
O532        O  0.40433521  0.99539395  0.91226033    -0.78300
O533        O  0.36368192  0.47003979  0.86611478    -0.78500
C534        C  0.38137359  0.47233363  0.84444162     1.02100
Cr535      Cr  0.39873929  0.04562011  0.83998880     1.93700
Cr536      Cr  0.43869873  0.07875666  0.89302502     1.93200
Cr537      Cr  0.36919995  0.00502153  0.89484932     1.39100
O538        O  0.40201479  0.04275466  0.87607663    -1.23600
O539        O  0.39461856  0.25381571  0.84556251    -0.85800
O540        O  0.34147252  0.26961043  0.83975686    -0.82900
C541        C  0.31853041  0.25690814  0.85909084     0.97600
O542        O  0.32629700  0.26958070  0.88274047    -0.82900
O543        O  0.36744247  0.28601195  0.92693229    -0.85600
C544        C  0.38133559  0.26683572  0.93140016     1.02200
O545        O  0.40488909  0.26712011  0.91538918    -0.78300
O546        O  0.44486571  0.27987832  0.86686863    -0.78500
C547        C  0.42080443  0.25259763  0.85510136     1.02100
O548        O  0.44871143  0.32865804  0.83336629    -0.85800
O549        O  0.39441496  0.34376206  0.83164625    -0.82900
C550        C  0.37692605  0.35620117  0.84363865     0.97700
O551        O  0.36138491  0.34405355  0.86652176    -0.82900
O552        O  0.40380855  0.35964577  0.91063328    -0.85500
C553        C  0.42192949  0.35748994  0.92938713     1.02100
O554        O  0.43655962  0.33907631  0.92553594    -0.78300
O555        O  0.46990394  0.35441547  0.87305479    -0.78500
C556        C  0.47314990  0.35365535  0.84732581     1.02100
Cr557      Cr  0.39521220  0.29962140  0.84042432     1.93700
Cr558      Cr  0.36718665  0.31436208  0.89496676     1.93200
Cr559      Cr  0.43630378  0.31033585  0.89341529     1.39100
O560        O  0.39911468  0.30807446  0.87623146    -1.23600
O561        O  0.17511521  0.09905799  0.83941800    -0.85800
O562        O  0.19108026  0.04650270  0.84371783    -0.82900
C563        C  0.19282271  0.02024276  0.85228914     0.97600
O564        O  0.16638372  0.99575411  0.86500747    -0.82900
O565        O  0.17970182  0.03580969  0.91385931    -0.85600
C566        C  0.17952082  0.05886406  0.92995835     1.02200
O567        O  0.15875718  0.07112831  0.92645095    -0.78300
O568        O  0.17394329  0.11326846  0.88236008    -0.78500
C569        C  0.18732975  0.12147835  0.85862742     1.02100
O570        O  0.10075364  0.04693045  0.83232243    -0.85800
O571        O  0.11561467  0.99246356  0.83306862    -0.82900
C572        C  0.09188586  0.46468141  0.84675983     0.97700
O573        O  0.09257072  0.46678077  0.87261099    -0.82900
O574        O  0.10708104  0.00132842  0.92522622    -0.85500
C575        C  0.08591526  0.01268840  0.92930404     1.02100
O576        O  0.08458590  0.03387179  0.91270215    -0.78300
O577        O  0.09912434  0.07721696  0.86820369    -0.78500
C578        C  0.08797787  0.06364271  0.84494360     1.02100
Cr579      Cr  0.14493326  0.04563838  0.84003881     1.93700
Cr580      Cr  0.13610932  0.00368378  0.89266158     1.93200
Cr581      Cr  0.12959953  0.07129271  0.89553265     1.39100
O582        O  0.13672059  0.04057144  0.87602311    -1.23600
C583        C  0.37370099  0.38462742  0.83001499     0.79700
N584        N  0.37805460  0.41384704  0.84394210    -0.78600
C585        C  0.37586739  0.44004445  0.83041302     0.82200
N586        N  0.36791057  0.43628345  0.80340981    -0.78500
C587        C  0.36225667  0.40668411  0.78976254     0.82300
N588        N  0.36552876  0.38116954  0.80311815    -0.80200
C589        C  0.17462445  0.39690591  0.66158587     0.79700
N590        N  0.17861468  0.40229255  0.63423426    -0.78600
C591        C  0.20879227  0.40803968  0.62088154     0.82200
N592        N  0.23511215  0.40737342  0.63513658    -0.78500
C593        C  0.23136876  0.40126666  0.66266197     0.82300
N594        N  0.20132117  0.39690985  0.67601377    -0.80200
C595        C  0.04505720  0.27079103  0.66335984     0.79700
N596        N  0.04857459  0.24477103  0.67589167    -0.78600
C597        C  0.04832942  0.21800661  0.66071388     0.82200
N598        N  0.54327947  0.21688083  0.63377878    -0.78500
C599        C  0.53821261  0.24161143  0.62111586     0.82300
N600        N  0.53942654  0.26879963  0.63612620    -0.80200
C601        C  0.13503901  0.32091888  0.86485520     0.02600
C602        C  0.10680320  0.28552254  0.86848765    -0.13500
C603        C  0.11388412  0.25790004  0.86289454     0.00100
C604        C  0.14912248  0.26492804  0.86617696    -0.12000
C605        C  0.17716311  0.30021953  0.86266008     0.02600
C606        C  0.16981959  0.32752758  0.86939939    -0.11400
H607        H  0.07968290  0.27931961  0.86485377     0.08200
H608        H  0.15501623  0.24411412  0.86082130     0.05800
H609        H  0.19118158  0.35492826  0.86723350     0.05600
O610        O  0.02267400  0.37809111  0.67818313    -0.85800
O611        O  0.09139809  0.43147209  0.67078003    -0.82900
C612        C  0.10039823  0.45410280  0.68983592     0.97600
O613        O  0.10585171  0.44663979  0.71336326    -0.82900
O614        O  0.08241044  0.40602558  0.75873757    -0.85600
C615        C  0.04941360  0.39113956  0.76493833     1.02200
O616        O  0.02578462  0.36695120  0.74994755    -0.78300
O617        O  0.49961498  0.33026462  0.70133603    -0.78500
C618        C  0.49707937  0.35435851  0.68901205     1.02100
O619        O  0.04373228  0.32484584  0.66553353    -0.85800
O620        O  0.11324489  0.37832813  0.66336922    -0.82900
C621        C  0.14298420  0.39504307  0.67508653     0.97700
O622        O  0.14643100  0.41185422  0.69710075    -0.82900
O623        O  0.12038737  0.37090597  0.74248843    -0.85500
C624        C  0.09917336  0.35080536  0.76076375     1.02100
O625        O  0.06611727  0.33537940  0.75699157    -0.78300
O626        O  0.04846020  0.30315688  0.70466009    -0.78500
C627        C  0.04595154  0.30100521  0.67883025     1.02100
Cr628      Cr  0.06814703  0.37788214  0.67243120     1.93700
Cr629      Cr  0.11068486  0.40633872  0.72606739     1.93200
Cr630      Cr  0.03755379  0.33626840  0.72622008     1.39100
O631        O  0.07240741  0.37394067  0.70832218    -1.23600
O632        O  0.06826670  0.08643684  0.67720014    -0.85800
O633        O  0.01506025  0.10224986  0.67007008    -0.82900
C634        C  0.49123194  0.09024508  0.68892383     0.97600
O635        O  0.49790174  0.10237750  0.71280371    -0.82900
O636        O  0.03751822  0.11995807  0.75822311    -0.85600
C637        C  0.05148152  0.10133782  0.76417578     1.02200
O638        O  0.07568357  0.10125423  0.74894291    -0.78300
O639        O  0.11706506  0.11232436  0.70059877    -0.78500
C640        C  0.09422348  0.08546499  0.68753767     1.02100
O641        O  0.12208410  0.16100510  0.66528092    -0.85800
O642        O  0.06847718  0.17661562  0.66256840    -0.82900
C643        C  0.05025129  0.18868013  0.67387336     0.97700
O644        O  0.03265128  0.17531847  0.69578169    -0.82900
O645        O  0.07383009  0.19280635  0.74038568    -0.85500
C646        C  0.09259820  0.19199504  0.75921496     1.02100
O647        O  0.10727077  0.17350042  0.75655196    -0.78300
O648        O  0.14220763  0.18771938  0.70467668    -0.78500
C649        C  0.14542787  0.18725382  0.67886445     1.02100
Cr650      Cr  0.06863171  0.13218257  0.67169254     1.93700
Cr651      Cr  0.03812819  0.14680790  0.72508345     1.93200
Cr652      Cr  0.10786723  0.14371697  0.72576407     1.39100
O653        O  0.07102910  0.14060710  0.70753993    -1.23600
O654        O  0.36154868  0.42537934  0.67763629    -0.85800
O655        O  0.34831724  0.35782726  0.67314068    -0.82900
C656        C  0.35953893  0.34836092  0.69331933     0.97600
O657        O  0.34275358  0.34071423  0.71574345    -0.82900
O658        O  0.32333491  0.36465580  0.75905742    -0.85600
C659        C  0.34375634  0.39758710  0.76360899     1.02200
O660        O  0.34471366  0.42128625  0.74790210    -0.78300
O661        O  0.33454092  0.44923908  0.69905552    -0.78500
C662        C  0.36204905  0.45274658  0.68672958     1.02100
O663        O  0.28670353  0.40207225  0.66412430    -0.85800
O664        O  0.27330312  0.33383638  0.66246624    -0.82900
C665        C  0.25875794  0.30424970  0.67476327     0.97700
O666        O  0.26915678  0.30095698  0.69788609    -0.82900
O667        O  0.25061025  0.32806561  0.74057420    -0.85500
C668        C  0.25134388  0.34829306  0.75925692     1.02100
O669        O  0.27167271  0.38133201  0.75658156    -0.78300
O670        O  0.25946178  0.39884212  0.70360709    -0.78500
C671        C  0.26045524  0.40051514  0.67768305     1.02100
Cr672      Cr  0.31655976  0.37940635  0.67217868     1.93700
Cr673      Cr  0.29709966  0.33655377  0.72650132     1.93200
Cr674      Cr  0.30260194  0.40985781  0.72499561     1.39100
O675        O  0.30557548  0.37496368  0.70780000    -1.23600
C676        C  0.17629479  0.21666320  0.66369893     0.79700
N677        N  0.20225352  0.24620059  0.67648111    -0.78600
C678        C  0.22968491  0.27275709  0.66146215     0.82200
N679        N  0.23141161  0.26939269  0.63389854    -0.78500
C680        C  0.20617835  0.23984457  0.62111188     0.82300
N681        N  0.17888360  0.21368593  0.63616671    -0.80200
C682        C  0.39754281  0.10698522  0.50100106     0.79700
N683        N  0.40004613  0.10360437  0.97328246    -0.78600
C684        C  0.37555989  0.07457909  0.95948164     0.82200
N685        N  0.34762594  0.04796609  0.97341441    -0.78500
C686        C  0.34373924  0.05096829  0.50034253     0.82300
N687        N  0.36869168  0.07988079  0.51461409    -0.80200
C688        C  0.34172889  0.23762948  0.49893118     0.79700
N689        N  0.34415582  0.24483409  0.97214000    -0.78600
C690        C  0.37284455  0.24845402  0.95779605     0.82200
N691        N  0.39738828  0.24328544  0.97059304    -0.78500
C692        C  0.39552682  0.23598560  0.49809446     0.82300
N693        N  0.36650433  0.23297230  0.51224030    -0.80200
C694        C  0.30215217  0.16114197  0.69629464     0.02600
C695        C  0.28319766  0.12388796  0.69406824    -0.13500
C696        C  0.30210908  0.10634792  0.68925111     0.00100
C697        C  0.33818957  0.12292625  0.69592932    -0.12000
C698        C  0.35832533  0.16039884  0.69907545     0.02600
C699        C  0.33847273  0.17786062  0.70381527    -0.11400
H700        H  0.25585196  0.11034975  0.68717188     0.08200
H701        H  0.35107594  0.10768572  0.69121462     0.05800
H702        H  0.35190546  0.20612785  0.70720174     0.05600
O703        O  0.01732155  0.26819547  0.50355499    -0.85800
O704        O  0.02776982  0.21262682  0.50972707    -0.82900
C705        C  0.02704534  0.18539636  0.51899780     0.97600
O706        O  0.99958358  0.16313400  0.53196034    -0.82900
O707        O  0.01903680  0.20818119  0.57927561    -0.85600
C708        C  0.02220146  0.23428202  0.59377086     1.02200
O709        O  0.00532246  0.25046193  0.58854331    -0.78300
O710        O  0.00828033  0.28727984  0.54260766    -0.78500
C711        C  0.02470448  0.29323773  0.52002977     1.02100
O712        O  0.43860555  0.22005987  0.99739081    -0.85800
O713        O  0.44914335  0.16295232  0.99983082    -0.82900
C714        C  0.42606619  0.13870941  0.51526688     0.97700
O715        O  0.42738233  0.14070253  0.54125754    -0.82900
O716        O  0.44886560  0.17325946  0.59414251    -0.85500
C717        C  0.43212893  0.18806466  0.60216934     1.02100
O718        O  0.42642802  0.20644095  0.58542566    -0.78300
O719        O  0.42961455  0.24057989  0.53700569    -0.78500
C720        C  0.42348339  0.23229399  0.51200330     1.02100
Cr721      Cr  0.98350218  0.21583312  0.50622783     1.93700
Cr722      Cr  0.47329008  0.17469535  0.55955434     1.93200
Cr723      Cr  0.46641340  0.24238431  0.56214211     1.39100
O724        O  0.47411553  0.21166905  0.54280788    -1.23600
O725        O  0.23313341  0.42045714  0.50725140    -0.85800
O726        O  0.18133947  0.43865183  0.50204769    -0.82900
C727        C  0.15763765  0.42404357  0.52077877     0.97600
O728        O  0.16537834  0.43243309  0.54531611    -0.82900
O729        O  0.20409550  0.44661902  0.59073862    -0.85600
C730        C  0.21716847  0.42657763  0.59451261     1.02200
O731        O  0.24039148  0.42684214  0.57815838    -0.78300
O732        O  0.28217395  0.44296711  0.53015445    -0.78500
C733        C  0.25841596  0.41753586  0.51645943     1.02100
O734        O  0.29048148  0.49622620  0.99909799    -0.85800
O735        O  0.23720140  0.51175889  0.99808883    -0.82900
C736        C  0.21666546  0.52181561  0.50996181     0.97700
O737        O  0.19926999  0.50721814  0.53180125    -0.82900
O738        O  0.23932909  0.02123178  0.57566469    -0.85500
C739        C  0.26000133  0.02051712  0.59287293     1.02100
O740        O  0.27321406  0.00075452  0.58966723    -0.78300
O741        O  0.30828455  0.51767845  0.54082869    -0.78500
C742        C  0.31246984  0.52028460  0.51519358     1.02100
Cr743      Cr  0.23546136  0.46700597  0.50471435     1.93700
Cr744      Cr  0.20472298  0.47648805  0.55960220     1.93200
Cr745      Cr  0.27319575  0.47162847  0.55829168     1.39100
O746        O  0.23743827  0.47176296  0.54086544    -1.23600
O747        O  0.17877924  0.18760286  0.50341842    -0.85800
O748        O  0.23150849  0.25565283  0.50772977    -0.82900
C749        C  0.25776887  0.28368703  0.51652789     0.97600
O750        O  0.28111284  0.28103227  0.52920460    -0.82900
O751        O  0.23742108  0.25423248  0.57773208    -0.85600
C752        C  0.21436168  0.23062986  0.59401974     1.02200
O753        O  0.20184011  0.19762051  0.58987558    -0.78300
O754        O  0.16240831  0.16781216  0.54530142    -0.78500
C755        C  0.15543632  0.17546577  0.52237141     1.02100
O756        O  0.22978560  0.16417115  0.49573759    -0.85800
O757        O  0.28514980  0.23318972  0.49778787    -0.82900
C758        C  0.30951306  0.23423159  0.51266391     0.97700
O759        O  0.30667686  0.23375080  0.53846448    -0.82900
O760        O  0.27318673  0.21987257  0.58938965    -0.85500
C761        C  0.26287798  0.18822788  0.59490920     1.02100
O762        O  0.24223848  0.16359243  0.57917866    -0.78300
O763        O  0.20300853  0.13248119  0.53284535    -0.78500
C764        C  0.21551255  0.13509234  0.50882301     1.02100
Cr765      Cr  0.23180886  0.20992643  0.50417863     1.93700
Cr766      Cr  0.27145280  0.24395342  0.55687014     1.93200
Cr767      Cr  0.20491283  0.16842726  0.55967385     1.39100
O768        O  0.23564034  0.20673546  0.54019698    -1.23600
C769        C  0.21155810  0.04865986  0.49482006     0.79700
N770        N  0.20535740  0.04533776  0.96899705    -0.78600
C771        C  0.19944305  0.06902739  0.95553680     0.82200
N772        N  0.20296590  0.09802346  0.96902859    -0.78500
C773        C  0.21194055  0.10322223  0.49491432     0.82300
N774        N  0.21517321  0.07774675  0.50857591    -0.80200
C775        C  0.26013075  0.38434770  0.51228747    -0.00600
C776        C  0.28874140  0.38264456  0.52374513    -0.12500
C777        C  0.28950943  0.35086136  0.52426210     0.01600
C778        C  0.26099322  0.31929197  0.51298105    -0.00700
C779        C  0.23358107  0.32152081  0.49986071    -0.12400
C780        C  0.23289676  0.35347716  0.49932390     0.01500
H781        H  0.31028390  0.40606591  0.53331338     0.14500
H782        H  0.21184584  0.29788304  0.49068254     0.14500
C783        C  0.20333539  0.35310232  0.48583071     0.36100
C784        C  0.31950495  0.35174876  0.53755071     0.36000
N785        N  0.17957027  0.35243661  0.47483691    -0.44200
N786        N  0.34353812  0.35268692  0.54833985    -0.44200
C787        C  0.05814332  0.17960500  0.51641012    -0.00600
C788        C  0.06026474  0.15647808  0.53528957    -0.12500
C789        C  0.09061757  0.15298817  0.53659989     0.01600
C790        C  0.12000890  0.17267148  0.51843926    -0.00700
C791        C  0.11685917  0.19383491  0.49821802    -0.12400
C792        C  0.08649624  0.19762378  0.49716661     0.01500
H793        H  0.03866100  0.14204966  0.55007289     0.14500
H794        H  0.13894093  0.20897092  0.48396855     0.14500
C795        C  0.08547803  0.22040003  0.47629587     0.36100
C796        C  0.09095544  0.12973797  0.55745743     0.36000
N797        N  0.07805321  0.22968582  0.95503812    -0.44200
N798        N  0.09123288  0.11130997  0.57431838    -0.44200
C799        C  0.05458207  0.33031131  0.51432485    -0.00600
C800        C  0.06018300  0.35681078  0.53352080    -0.12500
C801        C  0.09216094  0.38935605  0.53379021     0.01600
C802        C  0.12021931  0.39576739  0.51508156    -0.00700
C803        C  0.11267739  0.37190781  0.49324640    -0.12400
C804        C  0.07977935  0.33954536  0.49242458     0.01500
H805        H  0.04015254  0.35161481  0.54933777     0.14500
H806        H  0.13299897  0.37764413  0.47760305     0.14500
C807        C  0.07271327  0.31668782  0.46898714     0.36100
C808        C  0.09563604  0.41529995  0.55408021     0.36000
N809        N  0.06873006  0.29677323  0.95193729    -0.44200
N810        N  0.09829518  0.43604085  0.57028807    -0.44200
C811        C  0.29124553  0.17990819  0.67640895    -0.00600
C812        C  0.31737176  0.20244099  0.65709575    -0.12500
C813        C  0.30862513  0.20335162  0.63000719     0.01600
C814        C  0.27288008  0.18228648  0.62182966    -0.00700
C815        C  0.24595984  0.16531812  0.64198492    -0.12400
C816        C  0.25494192  0.16542711  0.66940351     0.01500
H817        H  0.34533387  0.21627995  0.66193024     0.14500
H818        H  0.21805541  0.15325779  0.63650357     0.14500
C819        C  0.22680162  0.15018670  0.69001113     0.36100
C820        C  0.33721532  0.22487022  0.61063998     0.36000
N821        N  0.20430273  0.13834743  0.70660030    -0.44200
N822        N  0.36008177  0.24197818  0.59516087    -0.44200
C823        C  0.29107134  0.08286322  0.66503673    -0.00600
C824        C  0.25940550  0.04970951  0.66566909    -0.12500
C825        C  0.24719256  0.02967736  0.64160852     0.01600
C826        C  0.26844596  0.04181245  0.61743665    -0.00700
C827        C  0.29929156  0.07473896  0.61669181    -0.12400
C828        C  0.30910250  0.09625490  0.63955649     0.01500
H829        H  0.24348041  0.04050700  0.68442261     0.14500
H830        H  0.31419551  0.08473284  0.59751764     0.14500
C831        C  0.33226083  0.13342662  0.63419119     0.36100
C832        C  0.21852831  0.49700183  0.64602587     0.36000
N833        N  0.34877675  0.16280907  0.62739889    -0.44200
N834        N  0.18975955  0.47290847  0.64773098    -0.44200
C835        C  0.42352280  0.18683275  0.63197567    -0.00600
C836        C  0.42013134  0.21461916  0.64371305    -0.12500
C837        C  0.40750718  0.21186820  0.67078781     0.01600
C838        C  0.39557322  0.17984820  0.68574869    -0.00700
C839        C  0.41081832  0.15921972  0.67723835    -0.12400
C840        C  0.42248261  0.16079389  0.65001472     0.01500
H841        H  0.42637183  0.23795300  0.63161250     0.14500
H842        H  0.40861138  0.13818717  0.69037141     0.14500
C843        C  0.43082920  0.13392021  0.64118315     0.36100
C844        C  0.40907116  0.24281087  0.68293437     0.36000
N845        N  0.43745495  0.11225811  0.63437614    -0.44200
N846        N  0.41002891  0.26760757  0.69263100    -0.44200
C847        C  0.39469838  0.48889465  0.68392466    -0.00600
C848        C  0.39438515  0.01792014  0.69920376    -0.12500
C849        C  0.42514576  0.05160866  0.69996527     0.01600
C850        C  0.45545785  0.05885600  0.68363569    -0.00700
C851        C  0.45248773  0.03317814  0.66456629    -0.12400
C852        C  0.42588287  0.49550748  0.66885049     0.01500
H853        H  0.37212875  0.01246848  0.71289566     0.14500
H854        H  0.47508339  0.03886654  0.65124111     0.14500
C855        C  0.42786582  0.46800937  0.65344620     0.36100
C856        C  0.42495291  0.07790057  0.71819580     0.36000
N857        N  0.42991756  0.44615747  0.64119966    -0.44200
N858        N  0.42463998  0.09881521  0.73285642    -0.44200
C859        C  0.39377822  0.34761801  0.69148634    -0.00600
C860        C  0.41513237  0.35937844  0.66740056    -0.12500
C861        C  0.44890262  0.36194161  0.66586057     0.01600
C862        C  0.46195711  0.35264049  0.68872675    -0.00700
C863        C  0.44093307  0.34120009  0.71271884    -0.12400
C864        C  0.40721213  0.33810322  0.71430298     0.01500
H865        H  0.40565682  0.36695314  0.64974967     0.14500
H866        H  0.45085397  0.33422560  0.73046804     0.14500
C867        C  0.38749239  0.32486812  0.73987394     0.36100
C868        C  0.46912726  0.37331097  0.64043268     0.36000
N869        N  0.37193284  0.31419052  0.76041288    -0.44200
N870        N  0.48520906  0.38235106  0.61997689    -0.44200
C871        C  0.10331372  0.48959519  0.68540596    -0.00600
C872        C  0.08053915  0.99278836  0.66960113    -0.12500
C873        C  0.07670059  0.02312870  0.66878608     0.01600
C874        C  0.09846961  0.05325569  0.68521142    -0.00700
C875        C  0.12446739  0.05208249  0.70135338    -0.12400
C876        C  0.12629250  0.51956833  0.70133584     0.01500
H877        H  0.06229755  0.47021729  0.65496113     0.14500
H878        H  0.14154843  0.07458678  0.71414342     0.14500
C879        C  0.15313678  0.51961066  0.71847929     0.36100
C880        C  0.04950825  0.02179238  0.65140651     0.36000
N881        N  0.17472996  0.51971306  0.73213703    -0.44200
N882        N  0.02755656  0.02013115  0.63731134    -0.44200
C883        C  0.09518649  0.23484964  0.83895493    -0.00600
C884        C  0.09243690  0.25200809  0.81537406    -0.12500
C885        C  0.09182144  0.23880884  0.78921341     0.01600
C886        C  0.09241096  0.20700769  0.78621341    -0.00700
C887        C  0.09024604  0.18730742  0.80969184    -0.12400
C888        C  0.09122698  0.20078406  0.83595346     0.01500
H889        H  0.09478296  0.27786723  0.81681637     0.14500
H890        H  0.08845283  0.16158176  0.80753915     0.14500
C891        C  0.08954906  0.17996549  0.85941830     0.36100
C892        C  0.09464004  0.26030051  0.76583373     0.36000
N893        N  0.08788231  0.16300340  0.87814251    -0.44200
N894        N  0.09741956  0.27744349  0.74692194    -0.44200
C895        C  0.20162908  0.30760875  0.83824396    -0.00600
C896        C  0.18693072  0.28739651  0.81420449    -0.12500
C897        C  0.20231307  0.30012914  0.78838619     0.01600
C898        C  0.23350370  0.33364834  0.78597570    -0.00700
C899        C  0.25036679  0.35231802  0.80995120    -0.12400
C900        C  0.23510887  0.33928217  0.83590903     0.01500
H901        H  0.16193165  0.26245877  0.81502151     0.14500
H902        H  0.27571225  0.37715257  0.80845881     0.14500
C903        C  0.25395281  0.35909265  0.85979020     0.36100
C904        C  0.18455364  0.27910009  0.76459648     0.36000
N905        N  0.26912263  0.37494494  0.87892508    -0.44200
N906        N  0.17078239  0.26257269  0.74531934    -0.44200
C907        C  0.13084097  0.34130776  0.84183095    -0.00600
C908        C  0.15587082  0.35259741  0.81963113    -0.12500
C909        C  0.14655918  0.35630419  0.79319372     0.01600
C910        C  0.11167627  0.34910634  0.78834188    -0.00700
C911        C  0.08846378  0.34310280  0.81093005    -0.12400
C912        C  0.09810206  0.34016739  0.83752800     0.01500
H913        H  0.18209010  0.35586781  0.82200358     0.14500
H914        H  0.06248174  0.34049596  0.80784811     0.14500
C915        C  0.07347376  0.33489007  0.85983420     0.36100
C916        C  0.17279249  0.36587705  0.77130890     0.36000
N917        N  0.05358880  0.33070228  0.87758314    -0.44200
N918        N  0.19365375  0.37386806  0.75361948    -0.44200
C919        C  0.28234396  0.22543343  0.85480955    -0.00600
C920        C  0.27816422  0.19932119  0.83566811    -0.12500
C921        C  0.24665612  0.16579775  0.83526746     0.01600
C922        C  0.21834792  0.15809350  0.85411339    -0.00700
C923        C  0.22151759  0.18534915  0.87160114    -0.12400
C924        C  0.25289081  0.21861668  0.87212928     0.01500
H925        H  0.30046031  0.20414583  0.82224254     0.14500
H926        H  0.19976215  0.18021967  0.88575382     0.14500
C927        C  0.25427024  0.24483507  0.89127628     0.36100
C928        C  0.24552022  0.13904529  0.81692464     0.36000
N929        N  0.25538511  0.26571932  0.90671070    -0.44200
N930        N  0.24478535  0.11765655  0.80223545    -0.44200
C931        C  0.42247072  0.15327037  0.85100448    -0.00600
C932        C  0.44792947  0.18223056  0.86631055    -0.12500
C933        C  0.44845486  0.21471263  0.86750849     0.01600
C934        C  0.42323757  0.21944060  0.85276237    -0.00700
C935        C  0.39850185  0.19092136  0.83662012    -0.12400
C936        C  0.39789087  0.15820958  0.83557016     0.01500
H937        H  0.46704030  0.17924458  0.87836643     0.14500
H938        H  0.37905374  0.19390544  0.82502458     0.14500
C939        C  0.37148788  0.13034755  0.81862499     0.36100
C940        C  0.47424348  0.24175452  0.88533786     0.36000
N941        N  0.35026941  0.10812376  0.80500251    -0.44200
N942        N  0.49484258  0.26305620  0.89986562    -0.44200
C943        C  0.22657460  0.01946459  0.84968827    -0.00600
C944        C  0.25743772  0.04833477  0.86038670    -0.12500
C945        C  0.28899660  0.04717789  0.86261727     0.01600
C946        C  0.29068729  0.01733714  0.85291473    -0.00700
C947        C  0.26031669  0.98894735  0.84098849    -0.12400
C948        C  0.22812408  0.98960625  0.83968311     0.01500
H949        H  0.25630435  0.07110289  0.86848515     0.14500
H950        H  0.26892347  0.47331770  0.82801343     0.14500
C951        C  0.20476806  0.46664071  0.82051429     0.36100
C952        C  0.31889536  0.07636796  0.87614909     0.36000
N953        N  0.18199649  0.44514095  0.80745513    -0.47800
N954        N  0.34261372  0.09962388  0.88727624    -0.44200
C955        C  0.42375843  0.39577128  0.01129288    -0.00600
C956        C  0.41091549  0.40736057  0.98958242    -0.12500
C957        C  0.40991687  0.39539377  0.96286064     0.01600
C958        C  0.42098395  0.37048243  0.95737513    -0.00700
C959        C  0.42744443  0.35422458  0.97972730    -0.12400
C960        C  0.42776117  0.36590043  0.00656864     0.01500
H961        H  0.40499373  0.42848613  0.99253137     0.14500
H962        H  0.43248946  0.33241676  0.97630627     0.14500
C963        C  0.42832554  0.34511479  0.52853676     0.36100
C964        C  0.39906780  0.41051829  0.94148456     0.36000
N965        N  0.43000419  0.32903807  0.54664505    -0.44200
N966        N  0.39002299  0.42223880  0.92430098    -0.44200
C967        C  0.02910838  0.47954722  0.00542876    -0.00600
C968        C  0.01060662  0.46551808  0.98076507    -0.12500
C969        C  0.02794660  0.47553452  0.95530925     0.01600
C970        C  0.06579342  0.00334238  0.95518668    -0.00700
C971        C  0.08229073  0.02398094  0.97843393    -0.12400
C972        C  0.06591150  0.01360556  0.00444660     0.01500
H973        H  0.98208372  0.44734332  0.98125662     0.14500
H974        H  0.10819765  0.04807885  0.97626015     0.14500
C975        C  0.08382986  0.03583936  0.02763437     0.36100
C976        C  0.00772689  0.45943808  0.93093082     0.36000
N977        N  0.10346982  0.02422264  0.54865326    -0.44200
N978        N  0.99144074  0.44634326  0.91147575    -0.44200
C979        C  0.43515097  0.00819257  0.95437942    -0.00600
C980        C  0.41069425  0.99969558  0.97636406    -0.12500
C981        C  0.42003569  0.49524234  0.00290149     0.01600
C982        C  0.45438167  0.50065330  0.00880503    -0.00700
C983        C  0.48060446  0.51429760  0.98742897    -0.12400
C984        C  0.47021997  0.01666804  0.95956307     0.01500
H985        H  0.38448409  0.99626888  0.97269210     0.14500
H986        H  0.50801198  0.52161105  0.99085405     0.14500
C987        C  0.49715741  0.02899533  0.93793905     0.36100
C988        C  0.39362879  0.48817671  0.02420670     0.36000
N989        N  0.51851320  0.03912943  0.92047916    -0.44200
N990        N  0.37892208  0.48973262  0.54404331    -0.44200
C991        C  0.00955019  0.57439307  0.33359135     0.79700
N992        N  0.01430924  0.58281499  0.30657607    -0.78600
C993        C  0.04183726  0.58390405  0.29188153     0.82200
N994        N  0.06488051  0.57633047  0.30440859    -0.78500
C995        C  0.06075707  0.56813558  0.33151170     0.82300
N996        N  0.03334160  0.56767097  0.34627362    -0.80200
C997        C  0.06178408  0.93704867  0.33292817     0.79700
N998        N  0.06660032  0.93127796  0.30629306    -0.78600
C999        C  0.04163275  0.90203307  0.29291117     0.82200
N1000       N  0.01129941  0.87806870  0.30648258    -0.78500
C1001       C  0.00586561  0.88325211  0.33328492     0.82300
N1002       N  0.03141558  0.91267898  0.34660871    -0.80200
C1003       C  0.46054209  0.98684563  0.53309007     0.02600
C1004       C  0.43563635  0.95082704  0.53919988    -0.13500
C1005       C  0.44593000  0.92534377  0.53373635     0.00100
C1006       C  0.48273643  0.93679860  0.53482295    -0.12000
C1007       C  0.00759343  0.97526344  0.53098178     0.02600
C1008       C  0.49766012  0.49226541  0.53575568    -0.11400
H1009       H  0.40736522  0.94146568  0.53841934     0.08200
H1010       H  0.99288369  0.92132641  0.52637688     0.05800
H1011       H  0.01743153  0.52337995  0.53372101     0.05600
O1012       O  0.34774488  0.52403299  0.33924469    -0.85800
O1013       O  0.40055386  0.59360460  0.34536491    -0.82900
C1014       C  0.42570364  0.62147726  0.35562816     0.97600
O1015       O  0.44899425  0.61926805  0.36937088    -0.82900
O1016       O  0.41017543  0.59144726  0.41860042    -0.85600
C1017       C  0.38639863  0.56779150  0.43419810     1.02200
O1018       O  0.37136575  0.53513361  0.42818107    -0.78300
O1019       O  0.33274263  0.51771553  0.38264154    -0.78500
C1020       C  0.32644203  0.52138531  0.35831995     1.02100
O1021       O  0.40133912  0.50353924  0.33403049    -0.85800
O1022       O  0.45462176  0.57375743  0.33463636    -0.82900
C1023       C  0.47802382  0.57183316  0.34852133     0.97700
O1024       O  0.47486206  0.56929367  0.37421519    -0.82900
O1025       O  0.44117362  0.54966922  0.42472375    -0.85500
C1026       C  0.42616958  0.51661652  0.42834143     1.02100
O1027       O  0.40296733  0.49499016  0.41212750    -0.78300
O1028       O  0.36236353  0.96999073  0.36568022    -0.78500
C1029       C  0.37969563  0.97241984  0.34380401     1.02100
Cr1030     Cr  0.40138253  0.54852560  0.34121665     1.93700
Cr1031     Cr  0.44098504  0.57969367  0.39488260     1.93200
Cr1032     Cr  0.36965229  0.50761051  0.39533179     1.39100
O1033       O  0.40393842  0.54496479  0.37728012    -1.23600
O1034       O  0.39864219  0.75594989  0.34689621    -0.85800
O1035       O  0.34354203  0.76873023  0.34116363    -0.82900
C1036       C  0.32015141  0.75640025  0.36020035     0.97600
O1037       O  0.32734912  0.76970619  0.38373772    -0.82900
O1038       O  0.36941197  0.78589209  0.42791415    -0.85600
C1039       C  0.38455653  0.76783144  0.43254596     1.02200
O1040       O  0.40888682  0.76934786  0.41672576    -0.78300
O1041       O  0.44898263  0.78321619  0.36804175    -0.78500
C1042       C  0.42550408  0.75572364  0.35611846     1.02100
O1043       O  0.45032290  0.83111266  0.33436397    -0.85800
O1044       O  0.39426184  0.84369329  0.33280817    -0.82900
C1045       C  0.37722105  0.85649252  0.34504570     0.97700
O1046       O  0.36243598  0.84478785  0.36824631    -0.82900
O1047       O  0.40446281  0.85995890  0.41228580    -0.85500
C1048       C  0.42291920  0.85833059  0.43096990     1.02100
O1049       O  0.43850918  0.84088305  0.42688737    -0.78300
O1050       O  0.47152184  0.85732123  0.37391896    -0.78500
C1051       C  0.47451387  0.85655019  0.34813029     1.02100
Cr1052     Cr  0.39708035  0.80057439  0.34171552     1.93700
Cr1053     Cr  0.36846210  0.81460762  0.39630725     1.93200
Cr1054     Cr  0.43903287  0.81283519  0.39453731     1.39100
O1055       O  0.40098014  0.80918018  0.37749759    -1.23600
O1056       O  0.17415954  0.59965868  0.33889463    -0.85800
O1057       O  0.19201101  0.54877521  0.34283217    -0.82900
C1058       C  0.19512536  0.52348876  0.35169436     0.97600
O1059       O  0.16926235  0.49825792  0.36441986    -0.82900
O1060       O  0.18013522  0.53646994  0.41378183    -0.85600
C1061       C  0.17922182  0.55896604  0.43007648     1.02200
O1062       O  0.15830860  0.57093811  0.42646429    -0.78300
O1063       O  0.17465782  0.61315086  0.38221196    -0.78500
C1064       C  0.18745803  0.62165535  0.35831724     1.02100
O1065       O  0.10005256  0.54555347  0.33229453    -0.85800
O1066       O  0.11720307  0.49274626  0.33206559    -0.82900
C1067       C  0.09042489  0.96910463  0.34653004     0.97700
O1068       O  0.09128800  0.97118037  0.37235376    -0.82900
O1069       O  0.10700475  0.50023531  0.42398895    -0.85500
C1070       C  0.08562428  0.51131685  0.42828155     1.02100
O1071       O  0.08475446  0.53342174  0.41228141    -0.78300
O1072       O  0.09990644  0.57735237  0.36763353    -0.78500
C1073       C  0.08790973  0.56288319  0.34476954     1.02100
Cr1074     Cr  0.14512982  0.54602839  0.33945153     1.93700
Cr1075     Cr  0.13735253  0.50409053  0.39190794     1.93200
Cr1076     Cr  0.12990237  0.57118679  0.39519157     1.39100
O1077       O  0.13724669  0.54070706  0.37551881    -1.23600
C1078       C  0.37363024  0.88469237  0.33106778     0.79700
N1079       N  0.37724615  0.91401207  0.34452982    -0.78600
C1080       C  0.37536200  0.94005071  0.33031878     0.82200
N1081       N  0.36853445  0.93597716  0.30311148    -0.78500
C1082       C  0.36366816  0.90636239  0.28990968     0.82300
N1083       N  0.36652879  0.88108192  0.30396964    -0.80200
C1084       C  0.17750977  0.89996305  0.16317675     0.79700
N1085       N  0.18130324  0.90538030  0.13582875    -0.78600
C1086       C  0.21088460  0.91005960  0.12218593     0.82200
N1087       N  0.23674530  0.90815172  0.13613041    -0.78500
C1088       C  0.23309399  0.90182966  0.16363926     0.82300
N1089       N  0.20369178  0.89861473  0.17731940    -0.80200
C1090       C  0.04756343  0.77321319  0.16468750     0.79700
N1091       N  0.05080792  0.74711692  0.17732742    -0.78600
C1092       C  0.04982536  0.71992594  0.16232920     0.82200
N1093       N  0.54230093  0.71678938  0.13596086    -0.78500
C1094       C  0.53795869  0.74195745  0.12323724     0.82300
N1095       N  0.53986028  0.76944527  0.13820173    -0.80200
C1096       C  0.14563051  0.82726100  0.36437653     0.02600
C1097       C  0.11681160  0.79253780  0.36923145    -0.13500
C1098       C  0.12282403  0.76398629  0.36474469     0.00100
C1099       C  0.15758009  0.77021684  0.36928735    -0.12000
C1100       C  0.18643785  0.80476642  0.36447452     0.02600
C1101       C  0.18028521  0.83341457  0.36861947    -0.11400
H1102       H  0.08992543  0.78721213  0.36565449     0.08200
H1103       H  0.16292639  0.74867488  0.36575864     0.05800
H1104       H  0.20199338  0.86021826  0.36444304     0.05600
O1105       O  0.02595133  0.88061362  0.17940040    -0.85800
O1106       O  0.09501343  0.93409553  0.17220663    -0.82900
C1107       C  0.10238163  0.95644117  0.19130906     0.97600
O1108       O  0.10700227  0.94908115  0.21511279    -0.82900
O1109       O  0.08481954  0.90830772  0.26047415    -0.85600
C1110       C  0.05163947  0.89313182  0.26631288     1.02200
O1111       O  0.02853349  0.86881356  0.25122450    -0.78300
O1112       O  0.50154267  0.83149135  0.20238334    -0.78500
C1113       C  0.49878921  0.85481465  0.18908323     1.02100
O1114       O  0.04674442  0.82748305  0.16699923    -0.85800
O1115       O  0.11621479  0.88050036  0.16538778    -0.82900
C1116       C  0.14604014  0.89830399  0.17673805     0.97700
O1117       O  0.14945606  0.91630285  0.19812874    -0.82900
O1118       O  0.12455806  0.87493267  0.24318675    -0.85500
C1119       C  0.10400787  0.85448098  0.26156337     1.02100
O1120       O  0.07072335  0.83887638  0.25850824    -0.78300
O1121       O  0.05263040  0.80625497  0.20594250    -0.78500
C1122       C  0.04924339  0.80375026  0.18016724     1.02100
Cr1123     Cr  0.07139079  0.88047002  0.17391089     1.93700
Cr1124     Cr  0.11348882  0.90968441  0.22747572     1.93200
Cr1125     Cr  0.04125660  0.83890122  0.22770050     1.39100
O1126       O  0.07557262  0.87678094  0.20979666    -1.23600
O1127       O  0.06748034  0.58704753  0.17885291    -0.85800
O1128       O  0.01481802  0.60326626  0.17154302    -0.82900
C1129       C  0.49123583  0.58943279  0.19055088     0.97600
O1130       O  0.49751176  0.60154032  0.21445416    -0.82900
O1131       O  0.03726752  0.62038754  0.25949571    -0.85600
C1132       C  0.05117814  0.60159093  0.26507303     1.02200
O1133       O  0.07539539  0.60169402  0.24981995    -0.78300
O1134       O  0.11666497  0.61289859  0.20174276    -0.78500
C1135       C  0.09352160  0.58599341  0.18890247     1.02100
O1136       O  0.12159872  0.66135997  0.16690853    -0.85800
O1137       O  0.06847706  0.67748505  0.16409759    -0.82900
C1138       C  0.05113609  0.69037223  0.17563012     0.97700
O1139       O  0.03384565  0.67761234  0.19778329    -0.82900
O1140       O  0.07392703  0.69367009  0.24314000    -0.85500
C1141       C  0.09335339  0.69282898  0.26147041     1.02100
O1142       O  0.10752296  0.67393106  0.25822796    -0.78300
O1143       O  0.14198302  0.68828173  0.20620807    -0.78500
C1144       C  0.14505265  0.68757428  0.18041485     1.02100
Cr1145     Cr  0.06827054  0.63295979  0.17328947     1.93700
Cr1146     Cr  0.03825108  0.64807315  0.22684734     1.93200
Cr1147     Cr  0.10766747  0.64428453  0.22711853     1.39100
O1148       O  0.07090713  0.64161869  0.20911768    -1.23600
O1149       O  0.36226081  0.92366641  0.17672840    -0.85800
O1150       O  0.34921289  0.85629872  0.17239445    -0.82900
C1151       C  0.36091696  0.84733897  0.19256474     0.97600
O1152       O  0.34416610  0.83930918  0.21497900    -0.82900
O1153       O  0.32611225  0.86387091  0.25874029    -0.85600
C1154       C  0.34606662  0.89688937  0.26334860     1.02200
O1155       O  0.34690421  0.92037085  0.24745964    -0.78300
O1156       O  0.33576224  0.94775979  0.19862204    -0.78500
C1157       C  0.36263040  0.95113030  0.18533239     1.02100
O1158       O  0.28740012  0.90060396  0.16438388    -0.85800
O1159       O  0.27375887  0.83247857  0.16297408    -0.82900
C1160       C  0.25934043  0.80306569  0.17543291     0.97700
O1161       O  0.27038003  0.79970704  0.19823562    -0.82900
O1162       O  0.25298556  0.82704883  0.24114552    -0.85500
C1163       C  0.25461405  0.84729013  0.26008606     1.02100
O1164       O  0.27422649  0.88036006  0.25695474    -0.78300
O1165       O  0.26087681  0.89764593  0.20416196    -0.78500
C1166       C  0.26167348  0.89968950  0.17826662     1.02100
Cr1167     Cr  0.31729026  0.87782648  0.17198672     1.93700
Cr1168     Cr  0.29903797  0.83540136  0.22646471     1.93200
Cr1169     Cr  0.30439415  0.90867921  0.22499600     1.39100
O1170       O  0.30712319  0.87369421  0.20774176    -1.23600
C1171       C  0.17591641  0.71647163  0.16514302     0.79700
N1172       N  0.20222772  0.74588240  0.17774782    -0.78600
C1173       C  0.22981301  0.77186504  0.16252270     0.82200
N1174       N  0.23132632  0.76810455  0.13503489    -0.78500
C1175       C  0.20577361  0.73861403  0.12249029     0.82300
N1176       N  0.17830809  0.71296594  0.13767280    -0.80200
C1177       C  0.39952539  0.60713558  0.00235737     0.79700
N1178       N  0.40276103  0.60407739  0.47594892    -0.78600
C1179       C  0.37813571  0.57573521  0.46168781     0.82200
N1180       N  0.34938987  0.54942189  0.47512347    -0.78500
C1181       C  0.34575520  0.55114744  0.00137431     0.82300
N1182       N  0.37032221  0.58016825  0.01574625    -0.80200
C1183       C  0.34157440  0.73648278  0.00006823     0.79700
N1184       N  0.34707377  0.74497919  0.47303143    -0.78600
C1185       C  0.37603290  0.74896748  0.45886460     0.82200
N1186       N  0.40041319  0.74348233  0.47176917    -0.78500
C1187       C  0.39560286  0.73516063  0.99902441     0.82300
N1188       N  0.36675637  0.73238682  0.01330605    -0.80200
C1189       C  0.30455771  0.65844359  0.19802561     0.02600
C1190       C  0.28757521  0.62125150  0.19595054    -0.13500
C1191       C  0.30823145  0.60579569  0.19007525     0.00100
C1192       C  0.34455618  0.62419682  0.19596876    -0.12000
C1193       C  0.36265702  0.66149420  0.20027727     0.02600
C1194       C  0.34102312  0.67698823  0.20533121    -0.11400
H1195       H  0.26001860  0.60617720  0.18969280     0.08200
H1196       H  0.35895850  0.61069863  0.19025243     0.05800
H1197       H  0.35317144  0.70518507  0.20883339     0.05600
O1198       O  0.01943859  0.76771208  0.00661904    -0.85800
O1199       O  0.02864416  0.71156750  0.01172612    -0.82900
C1200       C  0.02788449  0.68416193  0.02062299     0.97600
O1201       O  0.00097119  0.66246465  0.03434975    -0.82900
O1202       O  0.02022371  0.70910749  0.08111047    -0.85600
C1203       C  0.02298241  0.73524718  0.09541053     1.02200
O1204       O  0.00538583  0.75072931  0.09015280    -0.78300
O1205       O  0.00603222  0.78646131  0.04405002    -0.78500
C1206       C  0.02475551  0.79265709  0.02261482     1.02100
O1207       O  0.44248098  0.72094830  0.49898006    -0.85800
O1208       O  0.45136594  0.66253587  0.50260791    -0.82900
C1209       C  0.42747351  0.63908599  0.01675795     0.97700
O1210       O  0.42832005  0.64123542  0.04274525    -0.82900
O1211       O  0.44903177  0.67421119  0.09558528    -0.85500
C1212       C  0.43322522  0.68987452  0.10383524     1.02100
O1213       O  0.42736123  0.70804561  0.08705056    -0.78300
O1214       O  0.43009195  0.74077395  0.03801622    -0.78500
C1215       C  0.42405529  0.73224386  0.01302346     1.02100
Cr1216     Cr  0.98472376  0.71552385  0.00828039     1.93700
Cr1217     Cr  0.47391515  0.67543424  0.06132041     1.93200
Cr1218     Cr  0.46712331  0.74332288  0.06336867     1.39100
O1219       O  0.47490624  0.71235269  0.04434544    -1.23600
O1220       O  0.23189918  0.91876555  0.00918188    -0.85800
O1221       O  0.18090464  0.93745263  0.00469779    -0.82900
C1222       C  0.15783899  0.92505727  0.02402364     0.97600
O1223       O  0.16635827  0.93620156  0.04799944    -0.82900
O1224       O  0.20737201  0.94947641  0.09208660    -0.85600
C1225       C  0.21932263  0.92839435  0.09571055     1.02200
O1226       O  0.24154900  0.92729115  0.07901720    -0.78300
O1227       O  0.28208359  0.94122177  0.03041326    -0.78500
C1228       C  0.25688387  0.91525866  0.01827186     1.02100
O1229       O  0.28913587  0.99524653  0.49863601    -0.85800
O1230       O  0.23624867  0.01164283  0.49742576    -0.82900
C1231       C  0.21846851  0.02289710  0.01008280     0.97700
O1232       O  0.20335394  0.01079060  0.03312459    -0.82900
O1233       O  0.24163425  0.52157037  0.07649432    -0.85500
C1234       C  0.26218984  0.52032609  0.09360390     1.02100
O1235       O  0.27429901  0.49964139  0.09038388    -0.78300
O1236       O  0.30969518  0.01643617  0.03993582    -0.78500
C1237       C  0.31241456  0.01881758  0.01421258     1.02100
Cr1238     Cr  0.23493209  0.96566377  0.00557997     1.93700
Cr1239     Cr  0.20819539  0.97954632  0.06087905     1.93200
Cr1240     Cr  0.27468466  0.97117096  0.05832577     1.39100
O1241       O  0.23879719  0.97211922  0.04154346    -1.23600
O1242       O  0.17867401  0.68420983  0.00454318    -0.85800
O1243       O  0.22985816  0.75266219  0.00981041    -0.82900
C1244       C  0.25571024  0.78107301  0.01847152     0.97600
O1245       O  0.27977059  0.77945886  0.03112531    -0.82900
O1246       O  0.23716311  0.75232286  0.07949601    -0.85600
C1247       C  0.21387423  0.72890127  0.09567903     1.02200
O1248       O  0.20106808  0.69584584  0.09165835    -0.78300
O1249       O  0.16157226  0.66644590  0.04678313    -0.78500
C1250       C  0.15504474  0.67291415  0.02323823     1.02100
O1251       O  0.23085403  0.66290144  0.99772239    -0.85800
O1252       O  0.28509135  0.73252077  0.99951966    -0.82900
C1253       C  0.30947911  0.73324236  0.01411870     0.97700
O1254       O  0.30661376  0.73238217  0.03992783    -0.82900
O1255       O  0.27312103  0.71776677  0.09105699    -0.85500
C1256       C  0.26218507  0.68603596  0.09700336     1.02100
O1257       O  0.24083494  0.66129625  0.08153861    -0.78300
O1258       O  0.20175622  0.63076730  0.03420533    -0.78500
C1259       C  0.21501431  0.63353534  0.01036569     1.02100
Cr1260     Cr  0.23166291  0.70792244  0.00596978     1.93700
Cr1261     Cr  0.27109848  0.74216681  0.05860469     1.93200
Cr1262     Cr  0.20395638  0.66662612  0.06143925     1.39100
O1263       O  0.23524064  0.70481796  0.04202154    -1.23600
C1264       C  0.21206318  0.54806219  0.99590515     0.79700
N1265       N  0.20364356  0.54446021  0.46926501    -0.78600
C1266       C  0.19847904  0.56864318  0.45590065     0.82200
N1267       N  0.20258836  0.59782302  0.46950517    -0.78500
C1268       C  0.21092953  0.60166548  0.99625650     0.82300
N1269       N  0.21516118  0.57679359  0.00972958    -0.80200
C1270       C  0.25649795  0.88089636  0.01535631    -0.00600
C1271       C  0.28895460  0.88090380  0.01638130    -0.12500
C1272       C  0.28954845  0.84890216  0.01643635     0.01600
C1273       C  0.25719685  0.81581250  0.01503948    -0.00700
C1274       C  0.22491442  0.81585612  0.01304021    -0.12400
C1275       C  0.22418003  0.84774114  0.01366523     0.01500
H1276       H  0.31398043  0.90599983  0.01774386     0.14500
H1277       H  0.19981387  0.79071256  0.01258226     0.14500
C1278       C  0.18953787  0.84505338  0.01506661     0.36100
C1279       C  0.32368727  0.85079981  0.01844648     0.36000
N1280       N  0.16155508  0.84236669  0.01658493    -0.44200
N1281       N  0.35071208  0.85166604  0.02037941    -0.44200
C1282       C  0.05842572  0.67752124  0.01661748    -0.00600
C1283       C  0.05830509  0.65005540  0.03193691    -0.12500
C1284       C  0.08849361  0.64609826  0.03269476     0.01600
C1285       C  0.11996643  0.67009541  0.01810567    -0.00700
C1286       C  0.11899724  0.69517730  0.00066296    -0.12400
C1287       C  0.08865210  0.69893869  0.99966244     0.01500
H1288       H  0.03498177  0.63225476  0.04428556     0.14500
H1289       H  0.14271024  0.71325421  0.98877314     0.14500
C1290       C  0.08969563  0.72515083  0.98114962     0.36100
C1291       C  0.08640844  0.61717816  0.04859778     0.36000
N1292       N  0.08455029  0.73516045  0.45851793    -0.44200
N1293       N  0.08459963  0.59384864  0.06119801    -0.44200
C1294       C  0.05499554  0.82984671  0.01793605    -0.00600
C1295       C  0.06079954  0.85541239  0.03808552    -0.12500
C1296       C  0.09274978  0.88799797  0.03892028     0.01600
C1297       C  0.12045502  0.89572848  0.01943418    -0.00700
C1298       C  0.11284217  0.87250662  0.99711887    -0.12400
C1299       C  0.08030268  0.83990440  0.99605851     0.01500
H1300       H  0.04097107  0.84940689  0.05424345     0.14500
H1301       H  0.13305788  0.87880721  0.98123594     0.14500
C1302       C  0.07388125  0.81758633  0.97237253     0.36100
C1303       C  0.09633839  0.91242421  0.06057860     0.36000
N1304       N  0.07021737  0.79523364  0.45306696    -0.44200
N1305       N  0.09894572  0.93178392  0.07798355    -0.44200
C1306       C  0.29168095  0.67573108  0.17826095    -0.00600
C1307       C  0.31709287  0.70052104  0.15960192    -0.12500
C1308       C  0.30811864  0.70255450  0.13274710     0.01600
C1309       C  0.27273439  0.68013650  0.12399204    -0.00700
C1310       C  0.24609099  0.66012610  0.14372586    -0.12400
C1311       C  0.25520758  0.65912444  0.17100286     0.01500
H1312       H  0.34500395  0.71576015  0.16465929     0.14500
H1313       H  0.21815902  0.64644717  0.13809271     0.14500
C1314       C  0.22701506  0.64096744  0.19127791     0.36100
C1315       C  0.33643045  0.72671039  0.11419878     0.36000
N1316       N  0.20460018  0.62664996  0.20769411    -0.44200
N1317       N  0.35919840  0.74609164  0.09949557    -0.44200
C1318       C  0.29728122  0.58245084  0.16581831    -0.00600
C1319       C  0.26699575  0.54835456  0.16727743    -0.12500
C1320       C  0.25323907  0.52855832  0.14334097     0.01600
C1321       C  0.27170851  0.54184545  0.11816344    -0.00700
C1322       C  0.30131927  0.57568998  0.11660466    -0.12400
C1323       C  0.31264804  0.59681079  0.13974181     0.01500
H1324       H  0.25287981  0.53835397  0.18668956     0.14500
H1325       H  0.31417576  0.58642048  0.09686562     0.14500
C1326       C  0.33481619  0.63424254  0.13467033     0.36100
C1327       C  0.22727413  0.00069597  0.14707632     0.36000
N1328       N  0.35053696  0.66386032  0.12835453    -0.44200
N1329       N  0.19851534  0.97688423  0.14986008    -0.44200
C1330       C  0.42602808  0.68979085  0.13386014    -0.00600
C1331       C  0.42112725  0.71687923  0.14534668    -0.12500
C1332       C  0.40978110  0.71450022  0.17279050     0.01600
C1333       C  0.40024051  0.68333373  0.18809158    -0.00700
C1334       C  0.41769100  0.66476555  0.17981300    -0.12400
C1335       C  0.42817306  0.66578447  0.15234606     0.01500
H1336       H  0.42542109  0.73933239  0.13292705     0.14500
H1337       H  0.41715601  0.64476415  0.19322957     0.14500
C1338       C  0.43897701  0.64055301  0.14391779     0.36100
C1339       C  0.41106777  0.74513245  0.18541989     0.36000
N1340       N  0.44767471  0.62030922  0.13737201    -0.44200
N1341       N  0.41210025  0.76955556  0.19594548    -0.44200
C1342       C  0.39440817  0.98734036  0.18070134    -0.00600
C1343       C  0.39357068  0.51769956  0.19806244    -0.12500
C1344       C  0.42456665  0.55122089  0.19929903     0.01600
C1345       C  0.45597524  0.55754236  0.18504048    -0.00700
C1346       C  0.45456973  0.53066858  0.16805903    -0.12400
C1347       C  0.42587636  0.99340894  0.16631269     0.01500
H1348       H  0.37020727  0.51318437  0.20997452     0.14500
H1349       H  0.47840927  0.53540306  0.15677684     0.14500
C1350       C  0.42847137  0.96516424  0.15259759     0.36100
C1351       C  0.42356564  0.57828526  0.21605575     0.36000
N1352       N  0.43082070  0.94265727  0.14166295    -0.44200
N1353       N  0.42265982  0.59975370  0.22967650    -0.44200
C1354       C  0.39562169  0.84755736  0.19098227    -0.00600
C1355       C  0.41370012  0.85218205  0.16564215    -0.12500
C1356       C  0.44748704  0.85466882  0.16418137     0.01600
C1357       C  0.46365964  0.85263356  0.18834977    -0.00700
C1358       C  0.44586004  0.84808842  0.21341613    -0.12400
C1359       C  0.41246257  0.84546974  0.21509533     0.01500
H1360       H  0.40152087  0.85387243  0.14697458     0.14500
H1361       H  0.45834620  0.84668971  0.23205281     0.14500
C1362       C  0.39708249  0.84126256  0.24230856     0.36100
C1363       C  0.46440017  0.85793710  0.13775159     0.36000
N1364       N  0.38511420  0.83772190  0.26423065    -0.44200
N1365       N  0.47791030  0.86033744  0.11656376    -0.44200
C1366       C  0.10425178  0.99131220  0.18648192    -0.00600
C1367       C  0.08083059  0.49423684  0.16894899    -0.12500
C1368       C  0.07764308  0.52501964  0.16827235     0.01600
C1369       C  0.09735653  0.55356503  0.18657603    -0.00700
C1370       C  0.12088352  0.55065282  0.20439050    -0.12400
C1371       C  0.12679141  0.02190665  0.20197901     0.01500
H1372       H  0.06277569  0.96996090  0.15643316     0.14500
H1373       H  0.13626381  0.57198773  0.21865091     0.14500
C1374       C  0.15368218  0.02295104  0.21964097     0.36100
C1375       C  0.05373343  0.52624678  0.14871442     0.36000
N1376       N  0.17527038  0.02390964  0.23379713    -0.44200
N1377       N  0.03458120  0.52710527  0.13294590    -0.44200
C1378       C  0.10379817  0.73992337  0.34111661    -0.00600
C1379       C  0.09740954  0.75512512  0.31786870    -0.12500
C1380       C  0.09367716  0.74035017  0.29184003     0.01600
C1381       C  0.09568105  0.70928334  0.28849097    -0.00700
C1382       C  0.09772823  0.69167954  0.31190730    -0.12400
C1383       C  0.10120927  0.70636786  0.33805897     0.01500
H1384       H  0.09818789  0.78031065  0.31923898     0.14500
H1385       H  0.09698950  0.66642669  0.30977594     0.14500
C1386       C  0.10339831  0.68715218  0.36122362     0.36100
C1387       C  0.09044574  0.75901906  0.26873664     0.36000
N1388       N  0.10524681  0.67168035  0.37969633    -0.44200
N1389       N  0.08785133  0.77376667  0.25009101    -0.44200
C1390       C  0.21087118  0.80919961  0.34072001    -0.00600
C1391       C  0.19559792  0.78716172  0.31759371    -0.12500
C1392       C  0.20937248  0.79873243  0.29124552     0.01600
C1393       C  0.23938391  0.83288331  0.28747085    -0.00700
C1394       C  0.25772235  0.85270182  0.31065875    -0.12400
C1395       C  0.24422438  0.84067762  0.33714132     0.01500
H1396       H  0.17085985  0.76203579  0.31940828     0.14500
H1397       H  0.28260652  0.87780315  0.30813603     0.14500
C1398       C  0.26428715  0.86157167  0.36026573     0.36100
C1399       C  0.19083238  0.77588407  0.26843629     0.36000
N1400       N  0.28051923  0.87823916  0.37877674    -0.44200
N1401       N  0.17628182  0.75766977  0.25005941    -0.44200
C1402       C  0.14115505  0.84631394  0.34067098    -0.00600
C1403       C  0.16259987  0.85176423  0.31686131    -0.12500
C1404       C  0.15128324  0.85471766  0.29098858     0.01600
C1405       C  0.11806712  0.85268068  0.28838529    -0.00700
C1406       C  0.09866112  0.85167348  0.31222092    -0.12400
C1407       C  0.11028871  0.84920474  0.33823003     0.01500
H1408       H  0.18693842  0.85070299  0.31780206     0.14500
H1409       H  0.07416183  0.85258141  0.31053442     0.14500
C1410       C  0.08961675  0.84851797  0.36203963     0.36100
C1411       C  0.17294164  0.85720065  0.26728355     0.36000
N1412       N  0.07314911  0.84811837  0.38114314    -0.44200
N1413       N  0.18989390  0.85922487  0.24802531    -0.44200
C1414       C  0.28399342  0.72474411  0.35554862    -0.00600
C1415       C  0.28041529  0.69781910  0.33744394    -0.12500
C1416       C  0.24836647  0.66471326  0.33642750     0.01600
C1417       C  0.21905664  0.65801675  0.35386701    -0.00700
C1418       C  0.22182371  0.68596269  0.37030563    -0.12400
C1419       C  0.25355929  0.71902786  0.37111600     0.01500
H1420       H  0.30335632  0.70182712  0.32518643     0.14500
H1421       H  0.19928407  0.68161015  0.38326232     0.14500
C1422       C  0.25400201  0.74652786  0.38824323     0.36100
C1423       C  0.24739579  0.63742067  0.31879306     0.36000
N1424       N  0.25412518  0.76848583  0.40190651    -0.44200
N1425       N  0.24684813  0.61573786  0.30454348    -0.44200
C1426       C  0.42785035  0.65682429  0.35241096    -0.00600
C1427       C  0.45473841  0.68658113  0.36621405    -0.12500
C1428       C  0.45567716  0.71937167  0.36676067     0.01600
C1429       C  0.42894945  0.72315990  0.35339720    -0.00700
C1430       C  0.40324256  0.69399365  0.33837148    -0.12400
C1431       C  0.40258896  0.66134003  0.33755276     0.01500
H1432       H  0.47479313  0.68409790  0.37737655     0.14500
H1433       H  0.38292754  0.69637590  0.32750874     0.14500
C1434       C  0.37529682  0.63306911  0.32142470     0.36100
C1435       C  0.48396093  0.74803078  0.38197203     0.36000
N1436       N  0.35344364  0.61054105  0.30839490    -0.44200
N1437       N  0.50676612  0.77077927  0.39420211    -0.44200
C1438       C  0.22980761  0.52476414  0.34931639    -0.00600
C1439       C  0.25877135  0.55194025  0.36328788    -0.12500
C1440       C  0.29099675  0.55197966  0.36513242     0.01600
C1441       C  0.29461367  0.52437608  0.35286256    -0.00700
C1442       C  0.26656493  0.49854737  0.33717738    -0.12400
C1443       C  0.23416798  0.49860712  0.33530743     0.01500
H1444       H  0.25577868  0.57254794  0.37360024     0.14500
H1445       H  0.26318350  0.96967690  0.33104289     0.14500
C1446       C  0.19887113  0.96307338  0.32462190     0.36100
C1447       C  0.32014761  0.58079903  0.37961325     0.36000
N1448       N  0.17458274  0.93972337  0.31405900    -0.47800
N1449       N  0.34357451  0.60406238  0.39098798    -0.44200
C1450       C  0.42524722  0.89745647  0.51264104    -0.00600
C1451       C  0.40973396  0.90665044  0.49133080    -0.12500
C1452       C  0.40830529  0.89419823  0.46472651     0.01600
C1453       C  0.42181606  0.87125412  0.45897993    -0.00700
C1454       C  0.43079423  0.85684995  0.48119642    -0.12400
C1455       C  0.43134444  0.86885246  0.50796774     0.01500
H1456       H  0.40198983  0.92649416  0.49435020     0.14500
H1457       H  0.43767321  0.83630201  0.47771937     0.14500
C1458       C  0.44026746  0.85235817  0.02840850     0.36100
C1459       C  0.39433319  0.90690847  0.44379011     0.36000
N1460       N  0.44478950  0.83810634  0.04648567    -0.44200
N1461       N  0.38278850  0.91692275  0.42717045    -0.44200
C1462       C  0.02905611  0.98495111  0.50507528    -0.00600
C1463       C  0.01015867  0.97472444  0.48030830    -0.12500
C1464       C  0.02784260  0.98427500  0.45497796     0.01600
C1465       C  0.06517099  0.50089809  0.45412981    -0.00700
C1466       C  0.08120443  0.52155241  0.47744275    -0.12400
C1467       C  0.06535365  0.51029247  0.50351717     0.01500
H1468       H  0.98121909  0.95986508  0.48076770     0.14500
H1469       H  0.10661677  0.54622749  0.47531471     0.14500
C1470       C  0.08353359  0.53196734  0.52686218     0.36100
C1471       C  0.00713258  0.97279887  0.43032871     0.36000
N1472       N  0.10301910  0.52979172  0.04816229    -0.44200
N1473       N  0.99053878  0.96358590  0.41058800    -0.44200
C1474       C  0.43379176  0.50504365  0.45395335    -0.00600
C1475       C  0.41167069  0.50053770  0.47682693    -0.12500
C1476       C  0.41776081  0.99469342  0.50193486     0.01600
C1477       C  0.45279388  0.00244620  0.50832379    -0.00700
C1478       C  0.47949444  0.01842744  0.48743149    -0.12400
C1479       C  0.46728254  0.50846416  0.45766090     0.01500
H1480       H  0.38680452  0.50047695  0.47408996     0.14500
H1481       H  0.50726812  0.02750709  0.49122035     0.14500
C1482       C  0.49127555  0.51449044  0.43467491     0.36100
C1483       C  0.39065842  0.98621223  0.52293758     0.36000
N1484       N  0.51009630  0.51914585  0.41604504    -0.44200
N1485       N  0.37405986  0.98432806  0.04269546    -0.44200
C1486       C  0.00997974  0.57246639  0.83198180     0.79700
N1487       N  0.01539281  0.58169409  0.80508888    -0.78600
C1488       C  0.04295419  0.58259925  0.79045362     0.82200
N1489       N  0.06527272  0.57393450  0.80289616    -0.78500
C1490       C  0.06049908  0.56489519  0.82984643     0.82300
N1491       N  0.03316337  0.56474085  0.84453883    -0.80200
C1492       C  0.06274621  0.93545536  0.83382284     0.79700
N1493       N  0.06765174  0.93013806  0.80707173    -0.78600
C1494       C  0.04272039  0.90110038  0.79344390     0.82200
N1495       N  0.01242165  0.87686862  0.80691228    -0.78500
C1496       C  0.00696993  0.88154413  0.83383189     0.82300
N1497       N  0.03240961  0.91080251  0.84736468    -0.80200
C1498       C  0.46194965  0.98621044  0.03289431     0.02600
C1499       C  0.43699589  0.95013570  0.03854227    -0.13500
C1500       C  0.44803907  0.92518891  0.03355477     0.00100
C1501       C  0.48445258  0.93665681  0.03745278    -0.12000
C1502       C  0.00898273  0.97360523  0.03242855     0.02600
C1503       C  0.49690855  0.49371753  0.03790074    -0.11400
H1504       H  0.40886461  0.94059203  0.03575990     0.08200
H1505       H  0.99326526  0.91896416  0.03188980     0.05800
H1506       H  0.01639385  0.52266213  0.03802397     0.05600
O1507       O  0.34769643  0.52075740  0.83912947    -0.85800
O1508       O  0.39945330  0.59054904  0.84453029    -0.82900
C1509       C  0.42441577  0.61865234  0.85454648     0.97600
O1510       O  0.44882423  0.61722357  0.86731425    -0.82900
O1511       O  0.41197367  0.59068763  0.91750400    -0.85600
C1512       C  0.38839196  0.56724346  0.93338671     1.02200
O1513       O  0.37342719  0.53446787  0.92771454    -0.78300
O1514       O  0.33372948  0.51495974  0.88269707    -0.78500
C1515       C  0.32657723  0.51785462  0.85845523     1.02100
O1516       O  0.40237857  0.50201060  0.83344960    -0.85800
O1517       O  0.45495788  0.57213425  0.83289253    -0.82900
C1518       C  0.47877440  0.57042884  0.84646920     0.97700
O1519       O  0.47604995  0.56825583  0.87221255    -0.82900
O1520       O  0.44396788  0.54995374  0.92346934    -0.85500
C1521       C  0.42905590  0.51710127  0.92804856     1.02100
O1522       O  0.40566125  0.49473791  0.91229443    -0.78300
O1523       O  0.36297536  0.96877152  0.86633368    -0.78500
C1524       C  0.38070903  0.97160599  0.84460225     1.02100
Cr1525     Cr  0.40155827  0.54627248  0.84042165     1.93700
Cr1526     Cr  0.44242696  0.57878605  0.89332116     1.93200
Cr1527     Cr  0.37161433  0.50625462  0.89525027     1.39100
O1528       O  0.40511020  0.54340901  0.87650557    -1.23600
O1529       O  0.39656044  0.75306172  0.84518770    -0.85800
O1530       O  0.34260035  0.76723943  0.83925661    -0.82900
C1531       C  0.31936168  0.75415842  0.85837223     0.97600
O1532       O  0.32655345  0.76708657  0.88204573    -0.82900
O1533       O  0.36791350  0.78361734  0.92676140    -0.85600
C1534       C  0.38274800  0.76540339  0.93175149     1.02200
O1535       O  0.40655284  0.76601550  0.91576254    -0.78300
O1536       O  0.44654180  0.77947642  0.86677207    -0.78500
C1537       C  0.42268671  0.75207354  0.85508941     1.02100
O1538       O  0.44977961  0.82835520  0.83319383    -0.85800
O1539       O  0.39463016  0.84238507  0.83167494    -0.82900
C1540       C  0.37743120  0.85504116  0.84389999     0.97700
O1541       O  0.36178247  0.84249915  0.86672207    -0.82900
O1542       O  0.40352154  0.85732591  0.91116265    -0.85500
C1543       C  0.42304701  0.85619508  0.92927050     1.02100
O1544       O  0.43757342  0.83777676  0.92532801    -0.78300
O1545       O  0.47068895  0.85372022  0.87300065    -0.78500
C1546       C  0.47399566  0.85342382  0.84724502     1.02100
Cr1547     Cr  0.39627607  0.79844494  0.84022688     1.93700
Cr1548     Cr  0.36743378  0.81210427  0.89486653     1.93200
Cr1549     Cr  0.43739459  0.80930615  0.89334988     1.39100
O1550       O  0.39988391  0.80653161  0.87614497    -1.23600
O1551       O  0.17465410  0.59608194  0.83807803    -0.85800
O1552       O  0.19169629  0.54471387  0.84307730    -0.82900
C1553       C  0.19443818  0.51936283  0.85234705     0.97600
O1554       O  0.16836282  0.49459444  0.86524001    -0.82900
O1555       O  0.17947380  0.53452918  0.91393199    -0.85600
C1556       C  0.17851165  0.55736153  0.92987729     1.02200
O1557       O  0.15749600  0.56914638  0.92587562    -0.78300
O1558       O  0.17360616  0.61054753  0.88100019    -0.78500
C1559       C  0.18719953  0.61853486  0.85726028     1.02100
O1560       O  0.10031292  0.54265914  0.83102208    -0.85800
O1561       O  0.11675871  0.48933454  0.83229714    -0.82900
C1562       C  0.09104002  0.96758414  0.84761456     0.97700
O1563       O  0.09155568  0.96975637  0.87343933    -0.82900
O1564       O  0.10665473  0.49871840  0.92438148    -0.85500
C1565       C  0.08494052  0.50951172  0.92805510     1.02100
O1566       O  0.08360322  0.53051762  0.91118340    -0.78300
O1567       O  0.09888936  0.57379002  0.86636040    -0.78500
C1568       C  0.08755400  0.55958160  0.84333917     1.02100
Cr1569     Cr  0.14507972  0.54258767  0.83908102     1.93700
Cr1570     Cr  0.13664796  0.50153728  0.89224573     1.93200
Cr1571     Cr  0.12895184  0.56844891  0.89422079     1.39100
O1572       O  0.13676815  0.53786737  0.87514303    -1.23600
C1573       C  0.37459104  0.88405261  0.83040618     0.79700
N1574       N  0.37831624  0.91308909  0.84443919    -0.78600
C1575       C  0.37663203  0.93960452  0.83074484     0.82200
N1576       N  0.36974603  0.93625041  0.80358788    -0.78500
C1577       C  0.36470295  0.90698933  0.78984519     0.82300
N1578       N  0.36750970  0.88124081  0.80330542    -0.80200
C1579       C  0.17810847  0.90092907  0.66279893     0.79700
N1580       N  0.18186185  0.90640965  0.63549230    -0.78600
C1581       C  0.21134744  0.91101688  0.62177846     0.82200
N1582       N  0.23727746  0.90908484  0.63571420    -0.78500
C1583       C  0.23354240  0.90266111  0.66327755     0.82300
N1584       N  0.20415118  0.89940579  0.67690549    -0.80200
C1585       C  0.04777804  0.77324359  0.66424557     0.79700
N1586       N  0.05141922  0.74727281  0.67679800    -0.78600
C1587       C  0.05063829  0.72016844  0.66171725     0.82200
N1588       N  0.54435804  0.71727407  0.63455905    -0.78500
C1589       C  0.53981890  0.74239626  0.62195918     0.82300
N1590       N  0.54122413  0.76955531  0.63705478    -0.80200
C1591       C  0.14470404  0.82703181  0.86354728     0.02600
C1592       C  0.11607982  0.79203182  0.86778661    -0.13500
C1593       C  0.12286484  0.76393792  0.86370307     0.00100
C1594       C  0.15754784  0.77066092  0.86923096    -0.12000
C1595       C  0.18620363  0.80538974  0.86462427     0.02600
C1596       C  0.17938911  0.83366822  0.86842188    -0.11400
H1597       H  0.08923787  0.78625869  0.86337394     0.08200
H1598       H  0.16330922  0.74931220  0.86618716     0.05800
H1599       H  0.20089598  0.86066259  0.86460701     0.05600
O1600       O  0.02720690  0.88163020  0.67857322    -0.85800
O1601       O  0.09659797  0.93443726  0.67222161    -0.82900
C1602       C  0.10333594  0.95640697  0.69154911     0.97600
O1603       O  0.10717076  0.94864473  0.71542975    -0.82900
O1604       O  0.08566715  0.90753222  0.76063026    -0.85600
C1605       C  0.05253829  0.89275413  0.76649952     1.02200
O1606       O  0.02925369  0.86916180  0.75106568    -0.78300
O1607       O  0.50171281  0.83050608  0.70231101    -0.78500
C1608       C  0.49901531  0.85438568  0.68978514     1.02100
O1609       O  0.04698652  0.82764036  0.66643580    -0.85800
O1610       O  0.11667574  0.88010694  0.66526701    -0.82900
C1611       C  0.14651840  0.89866038  0.67637085     0.97700
O1612       O  0.14976618  0.91685470  0.69757758    -0.82900
O1613       O  0.12475039  0.87403697  0.74199297    -0.85500
C1614       C  0.10421168  0.85365949  0.76040635     1.02100
O1615       O  0.07089783  0.83833304  0.75752711    -0.78300
O1616       O  0.05213910  0.80605613  0.70540661    -0.78500
C1617       C  0.04919823  0.80373882  0.67964190     1.02100
Cr1618     Cr  0.07220399  0.88069706  0.67347449     1.93700
Cr1619     Cr  0.11389901  0.90932673  0.72718860     1.93200
Cr1620     Cr  0.04133725  0.83903646  0.72716805     1.39100
O1621       O  0.07593099  0.87677603  0.70937855    -1.23600
O1622       O  0.06972960  0.58747602  0.67710465    -0.85800
O1623       O  0.01663926  0.60313218  0.67117884    -0.82900
C1624       C  0.49331636  0.58932404  0.69029445     0.97600
O1625       O  0.49997741  0.60260926  0.71382813    -0.82900
O1626       O  0.04043098  0.62109293  0.75882764    -0.85600
C1627       C  0.05323545  0.60120283  0.76393932     1.02200
O1628       O  0.07705553  0.60083222  0.74845150    -0.78300
O1629       O  0.11867124  0.61239437  0.70023293    -0.78500
C1630       C  0.09554012  0.58589745  0.68702161     1.02100
O1631       O  0.12365176  0.66239044  0.66571703    -0.85800
O1632       O  0.06990569  0.67789946  0.66318276    -0.82900
C1633       C  0.05268015  0.69078735  0.67494874     0.97700
O1634       O  0.03618495  0.67823580  0.69739447    -0.82900
O1635       O  0.07791048  0.69432934  0.74179441    -0.85500
C1636       C  0.09693486  0.69305499  0.76025807     1.02100
O1637       O  0.11014064  0.67325055  0.75734291    -0.78300
O1638       O  0.14460892  0.68782687  0.70545438    -0.78500
C1639       C  0.14738226  0.68802463  0.67959912     1.02100
Cr1640     Cr  0.07025540  0.63341505  0.67222208     1.93700
Cr1641     Cr  0.04130754  0.64875969  0.72618092     1.93200
Cr1642     Cr  0.10988679  0.64365915  0.72598867     1.39100
O1643       O  0.07336113  0.64178817  0.70809904    -1.23600
O1644       O  0.36288717  0.92709010  0.67776805    -0.85800
O1645       O  0.35208360  0.86041470  0.67389680    -0.82900
C1646       C  0.36238277  0.84968668  0.69387330     0.97600
O1647       O  0.34445984  0.84019425  0.71575871    -0.82900
O1648       O  0.32636590  0.86510188  0.75901885    -0.85600
C1649       C  0.34634305  0.89805394  0.76364778     1.02200
O1650       O  0.34661133  0.92171223  0.74820960    -0.78300
O1651       O  0.33460184  0.94937821  0.69953431    -0.78500
C1652       C  0.36191190  0.95390944  0.68638041     1.02100
O1653       O  0.28775356  0.90138941  0.66450284    -0.85800
O1654       O  0.27649284  0.83391216  0.66285553    -0.82900
C1655       C  0.26114215  0.80453974  0.67547542     0.97700
O1656       O  0.27076909  0.80122090  0.69883251    -0.82900
O1657       O  0.25323538  0.82841764  0.74147748    -0.85500
C1658       C  0.25481758  0.84840536  0.76058174     1.02100
O1659       O  0.27416599  0.88144965  0.75749339    -0.78300
O1660       O  0.26070667  0.89829672  0.70416308    -0.78500
C1661       C  0.26189001  0.90043206  0.67819764     1.02100
Cr1662     Cr  0.31884789  0.88016750  0.67264515     1.93700
Cr1663     Cr  0.29935864  0.83678305  0.72692465     1.93200
Cr1664     Cr  0.30404656  0.90978768  0.72553875     1.39100
O1665       O  0.30766044  0.87529606  0.70825452    -1.23600
C1666       C  0.17826473  0.71743432  0.66463350     0.79700
N1667       N  0.20438566  0.74684298  0.67742389    -0.78600
C1668       C  0.23188488  0.77324949  0.66233533     0.82200
N1669       N  0.23356101  0.76981305  0.63482208    -0.78500
C1670       C  0.20814774  0.74036705  0.62213971     0.82300
N1671       N  0.18074988  0.71444008  0.63715744    -0.80200
C1672       C  0.39863491  0.60645538  0.50349111     0.79700
N1673       N  0.40415915  0.60436297  0.97490613    -0.78600
C1674       C  0.37988233  0.57559031  0.96073613     0.82200
N1675       N  0.35102713  0.54935122  0.97418480    -0.78500
C1676       C  0.34455523  0.55081257  0.50241761     0.82300
N1677       N  0.36948861  0.57947553  0.51692677    -0.80200
C1678       C  0.34195176  0.73593658  0.49981130     0.79700
N1679       N  0.34609101  0.74441357  0.97302359    -0.78600
C1680       C  0.37476392  0.74780557  0.95867842     0.82200
N1681       N  0.39950810  0.74304673  0.97173649    -0.78500
C1682       C  0.39582468  0.73431383  0.49882077     0.82300
N1683       N  0.36675077  0.73116143  0.51300800    -0.80200
C1684       C  0.30489262  0.65868078  0.69754088     0.02600
C1685       C  0.28841058  0.62151750  0.69587992    -0.13500
C1686       C  0.30952691  0.60662640  0.68971528     0.00100
C1687       C  0.34600701  0.62572423  0.69511988    -0.12000
C1688       C  0.36349987  0.66295140  0.69975926     0.02600
C1689       C  0.34127744  0.67772955  0.70503114    -0.11400
H1690       H  0.26074599  0.60602351  0.68993759     0.08200
H1691       H  0.36085832  0.61281737  0.68899478     0.05800
H1692       H  0.35288096  0.70582502  0.70872092     0.05600
O1693       O  0.01777329  0.76813327  0.50473558    -0.85800
O1694       O  0.02885753  0.71317805  0.51111676    -0.82900
C1695       C  0.02821871  0.68605535  0.52050623     0.97600
O1696       O  0.00089877  0.66400827  0.53369877    -0.82900
O1697       O  0.02039515  0.70988477  0.58049825    -0.85600
C1698       C  0.02329710  0.73587763  0.59497067     1.02200
O1699       O  0.00597175  0.75167172  0.58979784    -0.78300
O1700       O  0.00809426  0.78776050  0.54329715    -0.78500
C1701       C  0.02475726  0.79338492  0.52083347     1.02100
O1702       O  0.44249748  0.72223124  0.99923370    -0.85800
O1703       O  0.45171264  0.66397785  0.00200909    -0.82900
C1704       C  0.42712952  0.63812574  0.51769068     0.97700
O1705       O  0.42849711  0.64058943  0.54366120    -0.82900
O1706       O  0.45096499  0.67474165  0.59616213    -0.85500
C1707       C  0.43519597  0.69053616  0.60419236     1.02100
O1708       O  0.42875432  0.70793465  0.58706588    -0.78300
O1709       O  0.43019123  0.73954530  0.53779659    -0.78500
C1710       C  0.42409086  0.73102014  0.51280528     1.02100
Cr1711     Cr  0.98430233  0.71600029  0.50760984     1.93700
Cr1712     Cr  0.47467957  0.67502144  0.56142130     1.93200
Cr1713     Cr  0.46789209  0.74287319  0.56279399     1.39100
O1714       O  0.47537413  0.71159710  0.54408579    -1.23600
O1715       O  0.23301340  0.91989943  0.50724433    -0.85800
O1716       O  0.18105416  0.93821816  0.50176668    -0.82900
C1717       C  0.15749677  0.92360901  0.52058853     0.97600
O1718       O  0.16543542  0.93173921  0.54510205    -0.82900
O1719       O  0.20488915  0.94753743  0.59040801    -0.85600
C1720       C  0.21897565  0.92851132  0.59490002     1.02200
O1721       O  0.24210799  0.92863990  0.57854991    -0.78300
O1722       O  0.28229409  0.94306033  0.52998442    -0.78500
C1723       C  0.25825716  0.91710210  0.51681125     1.02100
O1724       O  0.28878162  0.99410127  0.99941490    -0.85800
O1725       O  0.23605288  0.01076728  0.99797755    -0.82900
C1726       C  0.21596499  0.02119076  0.50862193     0.97700
O1727       O  0.19832765  0.00635222  0.53038475    -0.82900
O1728       O  0.24015556  0.52091097  0.57725069    -0.85500
C1729       C  0.26072412  0.51948911  0.59426079     1.02100
O1730       O  0.27253508  0.49858166  0.59098507    -0.78300
O1731       O  0.30818422  0.01839100  0.53917860    -0.78500
C1732       C  0.31208118  0.02032320  0.51352700     1.02100
Cr1733     Cr  0.23517618  0.96646554  0.50403530     1.93700
Cr1734     Cr  0.20448667  0.97634938  0.55871863     1.93200
Cr1735     Cr  0.27380256  0.97278241  0.55755878     1.39100
O1736       O  0.23746178  0.97185570  0.54013677    -1.23600
O1737       O  0.17931623  0.68660766  0.50503022    -0.85800
O1738       O  0.23201849  0.75495642  0.50960315    -0.82900
C1739       C  0.25831361  0.78304905  0.51832075     0.97600
O1740       O  0.28205203  0.78049129  0.53062123    -0.82900
O1741       O  0.23938816  0.75405768  0.57907279    -0.85600
C1742       C  0.21630305  0.73072709  0.59539940     1.02200
O1743       O  0.20366597  0.69766644  0.59157555    -0.78300
O1744       O  0.16348561  0.66912770  0.54743085    -0.78500
C1745       C  0.15627548  0.67571443  0.52421899     1.02100
O1746       O  0.23073535  0.66390688  0.49737278    -0.85800
O1747       O  0.28585777  0.73282199  0.49910723    -0.82900
C1748       C  0.31002529  0.73302158  0.51372659     0.97700
O1749       O  0.30733424  0.73231329  0.53951453    -0.82900
O1750       O  0.27420453  0.71824003  0.59054727    -0.85500
C1751       C  0.26352221  0.68636950  0.59582673     1.02100
O1752       O  0.24235650  0.66208637  0.58006479    -0.78300
O1753       O  0.20191491  0.63199159  0.53394063    -0.78500
C1754       C  0.21515842  0.63464988  0.51017051     1.02100
Cr1755     Cr  0.23249436  0.70940011  0.50572462     1.93700
Cr1756     Cr  0.27271157  0.74311678  0.55818229     1.93200
Cr1757     Cr  0.20540253  0.66818763  0.56117325     1.39100
O1758       O  0.23649358  0.70619172  0.54165584    -1.23600
C1759       C  0.21199208  0.54890142  0.49620425     0.79700
N1760       N  0.20339348  0.54348405  0.96905268    -0.78600
C1761       C  0.19772513  0.56738937  0.95580266     0.82200
N1762       N  0.20173185  0.59654755  0.96948567    -0.78500
C1763       C  0.21129392  0.60277202  0.49631085     0.82300
N1764       N  0.21511642  0.57772143  0.50996121    -0.80200
C1765       C  0.25970886  0.88353274  0.51354083    -0.00600
C1766       C  0.28860670  0.88216143  0.52486533    -0.12500
C1767       C  0.28960180  0.85043981  0.52567713     0.01600
C1768       C  0.26099466  0.81852155  0.51493874    -0.00700
C1769       C  0.23299894  0.82024542  0.50230365    -0.12400
C1770       C  0.23210839  0.85210639  0.50140626     0.01500
H1771       H  0.31033763  0.90587737  0.53394079     0.14500
H1772       H  0.21104809  0.79631027  0.49363452     0.14500
C1773       C  0.20201653  0.85104047  0.48826655     0.36100
C1774       C  0.32007608  0.85178111  0.53848560     0.36000
N1775       N  0.17777080  0.84962767  0.47749278    -0.44200
N1776       N  0.34452492  0.85307613  0.54885039    -0.44200
C1777       C  0.05922024  0.68010443  0.51792854    -0.00600
C1778       C  0.06144535  0.65740927  0.53716395    -0.12500
C1779       C  0.09163892  0.65369178  0.53849488     0.01600
C1780       C  0.12092985  0.67297944  0.52017961    -0.00700
C1781       C  0.11764848  0.69358009  0.49956765    -0.12400
C1782       C  0.08724001  0.69727632  0.49829074     0.01500
H1783       H  0.03998915  0.64339168  0.55213784     0.14500
H1784       H  0.13955765  0.70815570  0.48505608     0.14500
C1785       C  0.08556601  0.71844857  0.47642226     0.36100
C1786       C  0.09180087  0.63043712  0.55942260     0.36000
N1787       N  0.09082909  0.74601605  0.96597130    -0.44200
N1788       N  0.09176266  0.61192429  0.57634979    -0.44200
C1789       C  0.05455691  0.83027301  0.51468511    -0.00600
C1790       C  0.05970718  0.85750487  0.53299513    -0.12500
C1791       C  0.09185398  0.88994818  0.53314664     0.01600
C1792       C  0.12011932  0.89560985  0.51492854    -0.00700
C1793       C  0.11301061  0.87101239  0.49381344    -0.12400
C1794       C  0.08036983  0.83853888  0.49336925     0.01500
H1795       H  0.03933449  0.85285688  0.54836463     0.14500
H1796       H  0.13368600  0.87613716  0.47864549     0.14500
C1797       C  0.07475572  0.81424302  0.47121035     0.36100
C1798       C  0.09542316  0.91645142  0.55293161     0.36000
N1799       N  0.06861266  0.80017976  0.95304914    -0.44200
N1800       N  0.09813433  0.93758474  0.56878218    -0.44200
C1801       C  0.29219045  0.67512247  0.67688057    -0.00600
C1802       C  0.31780027  0.69950661  0.65815155    -0.12500
C1803       C  0.30913833  0.70167686  0.63129293     0.01600
C1804       C  0.27379800  0.67963819  0.62249921    -0.00700
C1805       C  0.24695993  0.65951085  0.64205752    -0.12400
C1806       C  0.25581601  0.65839374  0.66937231     0.01500
H1807       H  0.34557388  0.71457431  0.66326451     0.14500
H1808       H  0.21907232  0.64604283  0.63629956     0.14500
C1809       C  0.22746143  0.64062360  0.68954081     0.36100
C1810       C  0.33757337  0.72596661  0.61286826     0.36000
N1811       N  0.20496937  0.62677349  0.70595336    -0.44200
N1812       N  0.36036090  0.74552236  0.59825536    -0.44200
C1813       C  0.29822540  0.58272685  0.66577566    -0.00600
C1814       C  0.26783290  0.54873160  0.66775843    -0.12500
C1815       C  0.25336285  0.52849998  0.64411618     0.01600
C1816       C  0.27100615  0.54139269  0.61861786    -0.00700
C1817       C  0.30083750  0.57505399  0.61655148    -0.12400
C1818       C  0.31314462  0.59649115  0.63947429     0.01500
H1819       H  0.25422568  0.53910756  0.68739194     0.14500
H1820       H  0.31325324  0.58535040  0.59661533     0.14500
C1821       C  0.33617711  0.63372282  0.63402743     0.36100
C1822       C  0.21173423  0.99882539  0.64157926     0.36000
N1823       N  0.35266656  0.66321416  0.62746756    -0.44200
N1824       N  0.18268456  0.97504962  0.64154672    -0.44200
C1825       C  0.42832065  0.69136790  0.63418731    -0.00600
C1826       C  0.42240174  0.71815391  0.64483952    -0.12500
C1827       C  0.41029707  0.71608677  0.67200172     0.01600
C1828       C  0.40120611  0.68543770  0.68791455    -0.00700
C1829       C  0.41967010  0.66751858  0.68058231    -0.12400
C1830       C  0.43087321  0.66824333  0.65332434     0.01500
H1831       H  0.42598514  0.73988273  0.63183790     0.14500
H1832       H  0.41914003  0.64789050  0.69445162     0.14500
C1833       C  0.44250631  0.64339905  0.64571372     0.36100
C1834       C  0.40861205  0.74597270  0.68308876     0.36000
N1835       N  0.45179441  0.62339531  0.63987172    -0.44200
N1836       N  0.40665629  0.76972933  0.69188017    -0.44200
C1837       C  0.39278938  0.99072993  0.68239834    -0.00600
C1838       C  0.39548861  0.51733708  0.69857372    -0.12500
C1839       C  0.42672344  0.55072327  0.69991831     0.01600
C1840       C  0.45810648  0.55683549  0.68568818    -0.00700
C1841       C  0.45683033  0.52935941  0.66954106    -0.12400
C1842       C  0.42161947  0.99926579  0.66384901     0.01500
H1843       H  0.37201854  0.51316677  0.71015620     0.14500
H1844       H  0.48084394  0.53365177  0.65874274     0.14500
C1845       C  0.42069553  0.97385296  0.64416337     0.36100
C1846       C  0.42594752  0.57785772  0.71674756     0.36000
N1847       N  0.42009394  0.95367115  0.62825804    -0.44200
N1848       N  0.42528406  0.59936779  0.73047896    -0.44200
C1849       C  0.39676634  0.84931968  0.69243155    -0.00600
C1850       C  0.41671346  0.85798559  0.66767969    -0.12500
C1851       C  0.45019206  0.85999369  0.66611200     0.01600
C1852       C  0.46407033  0.85276306  0.68951654    -0.00700
C1853       C  0.44455250  0.84448892  0.71417625    -0.12400
C1854       C  0.41151468  0.84282638  0.71600689     0.01500
H1855       H  0.40635149  0.86352700  0.64951393     0.14500
H1856       H  0.45544224  0.83958353  0.73236573     0.14500
C1857       C  0.39436808  0.83515495  0.74278958     0.36100
C1858       C  0.46936952  0.86881584  0.64019720     0.36000
N1859       N  0.38101150  0.82903619  0.76435798    -0.44200
N1860       N  0.48468245  0.87593121  0.61938508    -0.44200
C1861       C  0.10523081  0.99121626  0.68692877    -0.00600
C1862       C  0.07993685  0.49278108  0.66753236    -0.12500
C1863       C  0.07767780  0.52411544  0.66669399     0.01600
C1864       C  0.09896212  0.55318066  0.68420003    -0.00700
C1865       C  0.12359010  0.55039054  0.70085893    -0.12400
C1866       C  0.12789967  0.02172017  0.70245242     0.01500
H1867       H  0.06276995  0.96947958  0.65773451     0.14500
H1868       H  0.14026365  0.57205928  0.71442976     0.14500
C1869       C  0.15466742  0.02254780  0.72015619     0.36100
C1870       C  0.05311542  0.52536201  0.64779714     0.36000
N1871       N  0.17602418  0.02328464  0.73446026    -0.44200
N1872       N  0.03353236  0.52625676  0.63247406    -0.44200
C1873       C  0.10546663  0.74039097  0.83951415    -0.00600
C1874       C  0.10103079  0.75620356  0.81576739    -0.12500
C1875       C  0.09852074  0.74162024  0.78982908     0.01600
C1876       C  0.09943000  0.70991419  0.78707195    -0.00700
C1877       C  0.10002966  0.69199348  0.81080874    -0.12400
C1878       C  0.10259670  0.70668641  0.83686196     0.01500
H1879       H  0.10233624  0.78163428  0.81680826     0.14500
H1880       H  0.09869774  0.66643060  0.80902448     0.14500
C1881       C  0.10332733  0.68723842  0.86043127     0.36100
C1882       C  0.09781093  0.76113723  0.76626136     0.36000
N1883       N  0.10395775  0.67161023  0.87927962    -0.44200
N1884       N  0.09738404  0.77660144  0.74723172    -0.44200
C1885       C  0.21135166  0.81021932  0.84126520    -0.00600
C1886       C  0.19711633  0.78758916  0.81829383    -0.12500
C1887       C  0.21082542  0.79918067  0.79193269     0.01600
C1888       C  0.23987548  0.83388163  0.78801926    -0.00700
C1889       C  0.25759882  0.85432319  0.81115918    -0.12400
C1890       C  0.24412473  0.84234105  0.83765170     0.01500
H1891       H  0.17314462  0.76182848  0.82017663     0.14500
H1892       H  0.28192185  0.87991951  0.80859367     0.14500
C1893       C  0.26348344  0.86399345  0.86071775     0.36100
C1894       C  0.19323860  0.77564374  0.76923330     0.36000
N1895       N  0.27908933  0.88130561  0.87919200    -0.44200
N1896       N  0.17953673  0.75694641  0.75089981    -0.44200
C1897       C  0.14058566  0.84642218  0.83994724    -0.00600
C1898       C  0.16292668  0.85294415  0.81649417    -0.12500
C1899       C  0.15203459  0.85589395  0.79043799     0.01600
C1900       C  0.11817250  0.85225871  0.78732665    -0.00700
C1901       C  0.09789200  0.85034487  0.81085025    -0.12400
C1902       C  0.10923914  0.84831338  0.83701403     0.01500
H1903       H  0.18769799  0.85274883  0.81783843     0.14500
H1904       H  0.07293688  0.85029500  0.80882391     0.14500
C1905       C  0.08773847  0.84699578  0.86044961     0.36100
C1906       C  0.17504605  0.86047184  0.76711264     0.36000
N1907       N  0.07053263  0.84619473  0.87917893    -0.44200
N1908       N  0.19311629  0.86436451  0.74813497    -0.44200
C1909       C  0.28338390  0.72214633  0.85371690    -0.00600
C1910       C  0.28010423  0.69497011  0.83599147    -0.12500
C1911       C  0.24823418  0.66159834  0.83527797     0.01600
C1912       C  0.21883341  0.65490393  0.85265758    -0.00700
C1913       C  0.22135493  0.68303382  0.86870565    -0.12400
C1914       C  0.25287592  0.71629119  0.86921899     0.01500
H1915       H  0.30313267  0.69903092  0.82382803     0.14500
H1916       H  0.19877054  0.67872112  0.88158680     0.14500
C1917       C  0.25308561  0.74389490  0.88604634     0.36100
C1918       C  0.24749553  0.63412120  0.81797749     0.36000
N1919       N  0.25309911  0.76597073  0.89948264    -0.44200
N1920       N  0.24705152  0.61224950  0.80400970    -0.44200
C1921       C  0.42514156  0.65330834  0.85216724    -0.00600
C1922       C  0.45014984  0.68229965  0.86765114    -0.12500
C1923       C  0.45033701  0.71461172  0.86858794     0.01600
C1924       C  0.42528505  0.71904928  0.85333056    -0.00700
C1925       C  0.40075831  0.69034797  0.83729126    -0.12400
C1926       C  0.40034497  0.65778837  0.83660804     0.01500
H1927       H  0.46916270  0.67947750  0.87996568     0.14500
H1928       H  0.38129272  0.69306550  0.82549435     0.14500
C1929       C  0.37378131  0.62958237  0.81996717     0.36100
C1930       C  0.47565653  0.74183975  0.88656661     0.36000
N1931       N  0.35238430  0.60707185  0.80663894    -0.44200
N1932       N  0.49589258  0.76338363  0.90114867    -0.44200
C1933       C  0.22899100  0.52016036  0.85029600    -0.00600
C1934       C  0.25796214  0.54727620  0.86429499    -0.12500
C1935       C  0.29020613  0.54733770  0.86615268     0.01600
C1936       C  0.29416420  0.52013779  0.85348193    -0.00700
C1937       C  0.26593189  0.49406632  0.83803667    -0.12400
C1938       C  0.23327189  0.49376884  0.83653506     0.01500
H1939       H  0.25492759  0.56780492  0.87469884     0.14500
H1940       H  0.26134281  0.96582048  0.83368471     0.14500
C1941       C  0.19712306  0.95964370  0.82793175     0.36100
C1942       C  0.31892678  0.57558098  0.88137799     0.36000
N1943       N  0.17218213  0.93583281  0.81841348    -0.47800
N1944       N  0.34197252  0.59819540  0.89352107    -0.44200
C1945       C  0.43107201  0.90035301  0.00988605    -0.00600
C1946       C  0.41983674  0.91261981  0.98751939    -0.12500
C1947       C  0.41694953  0.89881522  0.96129839     0.01600
C1948       C  0.42513235  0.87173904  0.95666965    -0.00700
C1949       C  0.43214793  0.85640586  0.97935514    -0.12400
C1950       C  0.43438119  0.86993005  0.00583028     0.01500
H1951       H  0.41530057  0.93470187  0.98971395     0.14500
H1952       H  0.43580201  0.83363272  0.97648367     0.14500
C1953       C  0.43968971  0.85263000  0.53016566     0.36100
C1954       C  0.40680774  0.91397164  0.93945429     0.36000
N1955       N  0.44624202  0.83958015  0.54798570    -0.44200
N1956       N  0.39834279  0.92565034  0.92185061    -0.44200
C1957       C  0.03253663  0.98186404  0.00740041    -0.00600
C1958       C  0.01734859  0.96076090  0.98380438    -0.12500
C1959       C  0.03347472  0.97125910  0.95803210     0.01600
C1960       C  0.06463114  0.50030607  0.95401782    -0.00700
C1961       C  0.08357671  0.51409876  0.97841604    -0.12400
C1962       C  0.06604571  0.50408235  0.00406032     0.01500
H1963       H  0.99183905  0.93650801  0.98493379     0.14500
H1964       H  0.11221183  0.53258844  0.97739207     0.14500
C1965       C  0.08647634  0.51844577  0.02855267     0.36100
C1966       C  0.01621468  0.94885887  0.93470048     0.36000
N1967       N  0.09836716  0.54933740  0.54552761    -0.44200
N1968       N  0.00246843  0.93102678  0.91596333    -0.44200
C1969       C  0.43668427  0.50686420  0.95437698    -0.00600
C1970       C  0.41127568  0.49750436  0.97576006    -0.12500
C1971       C  0.42025771  0.99714439  0.00318419     0.01600
C1972       C  0.45448241  0.00173169  0.00813079    -0.00700
C1973       C  0.47957865  0.01346309  0.98598446    -0.12400
C1974       C  0.47192833  0.51688038  0.96061859     0.01500
H1975       H  0.38495932  0.49338927  0.97139567     0.14500
H1976       H  0.50653903  0.01891546  0.98857287     0.14500
C1977       C  0.49971192  0.53002317  0.93962414     0.36100
C1978       C  0.39465802  0.99005504  0.02514436     0.36000
N1979       N  0.52166212  0.54060796  0.92259957    -0.44200
N1980       N  0.36893054  0.97959267  0.53973989    -0.44200
C1981       C  0.50866588  0.07435387  0.33157258     0.79700
N1982       N  0.51346271  0.08212186  0.30442665    -0.78600
C1983       C  0.54157146  0.08385258  0.29010018     0.82200
N1984       N  0.56524257  0.07760083  0.30319404    -0.78500
C1985       C  0.56120594  0.07006732  0.33046506     0.82300
N1986       N  0.53308248  0.06891208  0.34478089    -0.80200
C1987       C  0.56423039  0.43581911  0.33253984     0.79700
N1988       N  0.56873884  0.43055387  0.30568154    -0.78600
C1989       C  0.54308106  0.40206429  0.29192913     0.82200
N1990       N  0.51248634  0.37841747  0.30533743    -0.78500
C1991       C  0.50738092  0.38307833  0.33229423     0.82300
N1992       N  0.53350786  0.41170429  0.34597802    -0.80200
C1993       C  0.96198395  0.48498717  0.53355570     0.02600
C1994       C  0.93675198  0.44929943  0.54012589    -0.13500
C1995       C  0.94648128  0.42348687  0.53442308     0.00100
C1996       C  0.98308416  0.43423053  0.53609330    -0.12000
C1997       C  0.50649761  0.46564211  0.53055595     0.02600
C1998       C  0.99609038  0.99893065  0.53914908    -0.11400
H1999       H  0.90857962  0.44045278  0.53885339     0.08200
H2000       H  0.48685383  0.41002132  0.53011531     0.05800
H2001       H  0.51630396  0.02571505  0.53483711     0.05600
O2002       O  0.84549062  0.02152915  0.33941243    -0.85800
O2003       O  0.89661428  0.09159289  0.34416379    -0.82900
C2004       C  0.92164063  0.12002323  0.35378214     0.97600
O2005       O  0.94617877  0.11885818  0.36644629    -0.82900
O2006       O  0.90866351  0.09212316  0.41669189    -0.85600
C2007       C  0.88540551  0.06844920  0.43267670     1.02200
O2008       O  0.87145157  0.03565743  0.42739454    -0.78300
O2009       O  0.83109206  0.01266651  0.38293373    -0.78500
C2010       C  0.82391748  0.01652864  0.35891772     1.02100
O2011       O  0.90013786  0.00285378  0.33315041    -0.85800
O2012       O  0.95251733  0.07339744  0.33250874    -0.82900
C2013       C  0.97705428  0.07318599  0.34620843     0.97700
O2014       O  0.97464409  0.07157301  0.37201193    -0.82900
O2015       O  0.94302928  0.05408652  0.42370421    -0.85500
C2016       C  0.92944549  0.02158916  0.42903980     1.02100
O2017       O  0.90662432  0.99817235  0.41348794    -0.78300
O2018       O  0.86163729  0.47179570  0.36662673    -0.78500
C2019       C  0.88009690  0.47386596  0.34548671     1.02100
Cr2020     Cr  0.89917870  0.04724389  0.34033425     1.93700
Cr2021     Cr  0.94022059  0.08117702  0.39290597     1.93200
Cr2022     Cr  0.87100520  0.00712710  0.39569873     1.39100
O2023       O  0.90331670  0.04473613  0.37643907    -1.23600
O2024       O  0.89551046  0.25601259  0.34592208    -0.85800
O2025       O  0.84245170  0.27200065  0.34104474    -0.82900
C2026       C  0.81972948  0.25851754  0.36045468     0.97600
O2027       O  0.82749366  0.27064343  0.38427688    -0.82900
O2028       O  0.86956850  0.28753379  0.42813761    -0.85600
C2029       C  0.88375395  0.26858046  0.43237921     1.02200
O2030       O  0.90715676  0.26902921  0.41608848    -0.78300
O2031       O  0.94597665  0.28172517  0.36695490    -0.78500
C2032       C  0.92169383  0.25457187  0.35522679     1.02100
O2033       O  0.94955237  0.33076994  0.33371282    -0.85800
O2034       O  0.89531510  0.34627937  0.33335855    -0.82900
C2035       C  0.87731932  0.35805839  0.34552677     0.97700
O2036       O  0.86171319  0.34524693  0.36828370    -0.82900
O2037       O  0.90526580  0.36100361  0.41172216    -0.85500
C2038       C  0.92399570  0.35913675  0.43011785     1.02100
O2039       O  0.93881831  0.34097364  0.42597885    -0.78300
O2040       O  0.97139172  0.35639195  0.37325909    -0.78500
C2041       C  0.97432261  0.35565320  0.34749796     1.02100
Cr2042     Cr  0.89615044  0.30191156  0.34134005     1.93700
Cr2043     Cr  0.86847459  0.31568082  0.39635541     1.93200
Cr2044     Cr  0.93802459  0.31222708  0.39380796     1.39100
O2045       O  0.90042754  0.30986365  0.37716431    -1.23600
O2046       O  0.67700337  0.10076885  0.33922200    -0.85800
O2047       O  0.69212190  0.04797366  0.34323724    -0.82900
C2048       C  0.69363021  0.02157271  0.35171004     0.97600
O2049       O  0.66682411  0.99691455  0.36390236    -0.82900
O2050       O  0.68075005  0.03704092  0.41287111    -0.85600
C2051       C  0.68025856  0.05971489  0.42923012     1.02200
O2052       O  0.65949338  0.07206154  0.42575967    -0.78300
O2053       O  0.67383557  0.11484070  0.38194970    -0.78500
C2054       C  0.68837947  0.12305309  0.35854338     1.02100
O2055       O  0.60241030  0.04952391  0.33126054    -0.85800
O2056       O  0.61624926  0.99439725  0.33224497    -0.82900
C2057       C  0.59307464  0.46747884  0.34655996     0.97700
O2058       O  0.59392663  0.46903896  0.37239870    -0.82900
O2059       O  0.60860626  0.00256387  0.42479252    -0.85500
C2060       C  0.58674986  0.01304226  0.42880381     1.02100
O2061       O  0.58488302  0.03383204  0.41207217    -0.78300
O2062       O  0.59874310  0.07763080  0.36784568    -0.78500
C2063       C  0.58858925  0.06509718  0.34414829     1.02100
Cr2064     Cr  0.64617498  0.04750426  0.33937970     1.93700
Cr2065     Cr  0.63706189  0.00506627  0.39180995     1.93200
Cr2066     Cr  0.62979768  0.07212973  0.39502532     1.39100
O2067       O  0.63758434  0.04203071  0.37532638    -1.23600
C2068       C  0.87317235  0.38602590  0.33194289     0.79700
N2069       N  0.87739303  0.41544675  0.34557878    -0.78600
C2070       C  0.87463432  0.44122198  0.33178400     0.82200
N2071       N  0.86630636  0.43676618  0.30482933    -0.78500
C2072       C  0.86086398  0.40698214  0.29151476     0.82300
N2073       N  0.86464723  0.38198246  0.30512559    -0.80200
C2074       C  0.67578909  0.39727077  0.16150590     0.79700
N2075       N  0.67969678  0.40165670  0.13408669    -0.78600
C2076       C  0.70969459  0.40663472  0.12089282     0.82200
N2077       N  0.73586921  0.40614365  0.13544074    -0.78500
C2078       C  0.73202682  0.40080530  0.16305680     0.82300
N2079       N  0.70224600  0.39730425  0.17620882    -0.80200
C2080       C  0.54454733  0.27145752  0.16285748     0.79700
N2081       N  0.54805877  0.24529902  0.17529906    -0.78600
C2082       C  0.54680448  0.21800232  0.16011039     0.82200
N2083       N  0.04251767  0.21759072  0.13238231    -0.78500
C2084       C  0.03844559  0.24311997  0.12003997     0.82300
N2085       N  0.04009275  0.27022308  0.13537705    -0.80200
C2086       C  0.63887750  0.32435278  0.36273980     0.02600
C2087       C  0.60908382  0.28975055  0.36578718    -0.13500
C2088       C  0.61427430  0.26073951  0.36110751     0.00100
C2089       C  0.64841654  0.26560930  0.36602638    -0.12000
C2090       C  0.67807459  0.30001323  0.36252503     0.02600
C2091       C  0.67273830  0.32896027  0.36787096    -0.11400
H2092       H  0.58278833  0.28543366  0.36123297     0.08200
H2093       H  0.65291127  0.24359749  0.36191922     0.05800
H2094       H  0.69513771  0.35577286  0.36531813     0.05600
O2095       O  0.52526231  0.38091442  0.17774107    -0.85800
O2096       O  0.59441929  0.43375337  0.17058454    -0.82900
C2097       C  0.60267147  0.45620518  0.18977082     0.97600
O2098       O  0.60755315  0.44862159  0.21341743    -0.82900
O2099       O  0.58527492  0.40789137  0.25876183    -0.85600
C2100       C  0.55226655  0.39324935  0.26493700     1.02200
O2101       O  0.52861800  0.36930703  0.24987307    -0.78300
O2102       O  0.00020783  0.32983439  0.20162080    -0.78500
C2103       C  0.99704676  0.35349074  0.18922856     1.02100
O2104       O  0.54499271  0.32665948  0.16510665    -0.85800
O2105       O  0.61471142  0.37922574  0.16328125    -0.82900
C2106       C  0.64456468  0.39643768  0.17468936     0.97700
O2107       O  0.64838933  0.41457966  0.19602286    -0.82900
O2108       O  0.62323532  0.37307953  0.24084536    -0.85500
C2109       C  0.60261248  0.35325534  0.25943918     1.02100
O2110       O  0.56936053  0.33775768  0.25631827    -0.78300
O2111       O  0.54998184  0.30494485  0.20409523    -0.78500
C2112       C  0.54677489  0.30247152  0.17831536     1.02100
Cr2113     Cr  0.57026439  0.37990609  0.17207214     1.93700
Cr2114     Cr  0.61304292  0.40855923  0.22548512     1.93200
Cr2115     Cr  0.53992496  0.33855013  0.22595411     1.39100
O2116       O  0.57458903  0.37610485  0.20793038    -1.23600
O2117       O  0.56888324  0.08743048  0.17518070    -0.85800
O2118       O  0.51530061  0.10269200  0.16773041    -0.82900
C2119       C  0.99111456  0.08815145  0.18619804     0.97600
O2120       O  0.99698682  0.10010186  0.21014778    -0.82900
O2121       O  0.53583461  0.11866668  0.25669245    -0.85600
C2122       C  0.55042291  0.10067806  0.26283291     1.02200
O2123       O  0.57480477  0.10099729  0.24765672    -0.78300
O2124       O  0.61677138  0.11284267  0.19976334    -0.78500
C2125       C  0.59459480  0.08635183  0.18592842     1.02100
O2126       O  0.62219769  0.16221597  0.16480883    -0.85800
O2127       O  0.56842998  0.17770595  0.16195978    -0.82900
C2128       C  0.54895435  0.18853435  0.17297811     0.97700
O2129       O  0.53008986  0.17350953  0.19409636    -0.82900
O2130       O  0.57037101  0.19152765  0.23933995    -0.85500
C2131       C  0.58978789  0.19156206  0.25802469     1.02100
O2132       O  0.60488869  0.17338132  0.25553714    -0.78300
O2133       O  0.64122715  0.18832346  0.20450310    -0.78500
C2134       C  0.64513232  0.18821815  0.17878492     1.02100
Cr2135     Cr  0.56876361  0.13306964  0.17031346     1.93700
Cr2136     Cr  0.53611559  0.14524852  0.22346311     1.93200
Cr2137     Cr  0.60674286  0.14386395  0.22492591     1.39100
O2138       O  0.57009622  0.14045588  0.20626983    -1.23600
O2139       O  0.86174160  0.42573824  0.17889062    -0.85800
O2140       O  0.84863056  0.35773541  0.17382194    -0.82900
C2141       C  0.86038435  0.34881843  0.19398623     0.97600
O2142       O  0.84438363  0.34211974  0.21668777    -0.82900
O2143       O  0.82346195  0.36447457  0.26017414    -0.85600
C2144       C  0.84296694  0.39749165  0.26508474     1.02200
O2145       O  0.84366857  0.42098157  0.24933135    -0.78300
O2146       O  0.83394813  0.44887025  0.20044304    -0.78500
C2147       C  0.86146732  0.45288557  0.18771642     1.02100
O2148       O  0.78750736  0.40241801  0.16512769    -0.85800
O2149       O  0.77371368  0.33415473  0.16334603    -0.82900
C2150       C  0.75983145  0.30437342  0.17529738     0.97700
O2151       O  0.77110326  0.30093403  0.19803020    -0.82900
O2152       O  0.75104565  0.32643018  0.24077905    -0.85500
C2153       C  0.75125888  0.34601913  0.25973701     1.02100
O2154       O  0.77061007  0.37925636  0.25721468    -0.78300
O2155       O  0.75898102  0.39749468  0.20424597    -0.78500
C2156       C  0.76074995  0.40003878  0.17837849     1.02100
Cr2157     Cr  0.81705175  0.37958903  0.17313358     1.93700
Cr2158     Cr  0.79811845  0.33642016  0.22715275     1.93200
Cr2159     Cr  0.80183978  0.40891453  0.22602675     1.39100
O2160       O  0.80590482  0.37474501  0.20871258    -1.23600
C2161       C  0.67633923  0.21756215  0.16404356     0.79700
N2162       N  0.70266726  0.24674476  0.17695566    -0.78600
C2163       C  0.73053914  0.27295245  0.16198679     0.82200
N2164       N  0.73222726  0.26951190  0.13440224    -0.78500
C2165       C  0.70650948  0.24024988  0.12160135     0.82300
N2166       N  0.67889732  0.21457613  0.13657307    -0.80200
C2167       C  0.89626149  0.10723914  0.00199021     0.79700
N2168       N  0.90108750  0.10503741  0.47426071    -0.78600
C2169       C  0.87663167  0.07655016  0.45999341     0.82200
N2170       N  0.84821995  0.04985567  0.47353234    -0.78500
C2171       C  0.84349671  0.05032573  0.00154266     0.82300
N2172       N  0.86792910  0.07970186  0.01571777    -0.80200
C2173       C  0.84008374  0.23659496  0.99908646     0.79700
N2174       N  0.84663614  0.24594969  0.47314947    -0.78600
C2175       C  0.87549126  0.25003351  0.45874171     0.82200
N2176       N  0.90013455  0.24484283  0.47138617    -0.78500
C2177       C  0.89451355  0.23622870  0.99799002     0.82300
N2178       N  0.86542047  0.23275456  0.01232846    -0.80200
C2179       C  0.80612357  0.16252521  0.19562894     0.02600
C2180       C  0.79212795  0.12570576  0.19429183    -0.13500
C2181       C  0.81543917  0.11341851  0.18755306     0.00100
C2182       C  0.85201744  0.13531824  0.19205458    -0.12000
C2183       C  0.86683121  0.17227683  0.19709150     0.02600
C2184       C  0.84231207  0.18409470  0.20306010    -0.11400
H2185       H  0.76440351  0.10891314  0.18866210     0.08200
H2186       H  0.86875861  0.12463465  0.18544852     0.05800
H2187       H  0.85185172  0.21196109  0.20646791     0.05600
O2188       O  0.51377266  0.26855844  0.00335454    -0.85800
O2189       O  0.52632229  0.21453836  0.00875891    -0.82900
C2190       C  0.52631260  0.18768662  0.01796924     0.97600
O2191       O  0.49884283  0.16465197  0.03046516    -0.82900
O2192       O  0.51701067  0.20836921  0.07858070    -0.85600
C2193       C  0.51922788  0.23370777  0.09357674     1.02200
O2194       O  0.50135173  0.24894436  0.08881439    -0.78300
O2195       O  0.50574053  0.28647077  0.04330509    -0.78500
C2196       C  0.52203433  0.29296441  0.02062322     1.02100
O2197       O  0.94172059  0.22138861  0.49788620    -0.85800
O2198       O  0.95043355  0.16303532  0.50108212    -0.82900
C2199       C  0.92447228  0.13946909  0.01605987     0.97700
O2200       O  0.92556411  0.14250452  0.04202495    -0.82900
O2201       O  0.94887543  0.17734614  0.09473729    -0.85500
C2202       C  0.93520999  0.19533947  0.10232196     1.02100
O2203       O  0.92837245  0.21153036  0.08444528    -0.78300
O2204       O  0.93093154  0.24394111  0.03597502    -0.78500
C2205       C  0.92314860  0.23351044  0.01152015     1.02100
Cr2206     Cr  0.48111137  0.21598775  0.00549460     1.93700
Cr2207     Cr  0.97206971  0.17652633  0.05978533     1.93200
Cr2208     Cr  0.96801565  0.24593829  0.06081049     1.39100
O2209       O  0.97390075  0.21357529  0.04223415    -1.23600
O2210       O  0.73346509  0.41963409  0.00708834    -0.85800
O2211       O  0.68088139  0.43670415  0.00340992    -0.82900
C2212       C  0.65759817  0.42257430  0.02251316     0.97600
O2213       O  0.66587869  0.43177650  0.04684388    -0.82900
O2214       O  0.70571472  0.44571526  0.09126747    -0.85600
C2215       C  0.71834666  0.42524919  0.09459527     1.02200
O2216       O  0.74126032  0.42529662  0.07796334    -0.78300
O2217       O  0.78286208  0.44220102  0.02941234    -0.78500
C2218       C  0.75910155  0.41691144  0.01568294     1.02100
O2219       O  0.79006663  0.49571809  0.50093191    -0.85800
O2220       O  0.73635508  0.51056599  0.49879274    -0.82900
C2221       C  0.71585858  0.52043855  0.01106656     0.97700
O2222       O  0.69965624  0.50649542  0.03341368    -0.82900
O2223       O  0.74597393  0.02316487  0.07826261    -0.85500
C2224       C  0.76567779  0.02033007  0.09528608     1.02100
O2225       O  0.77609538  0.99842681  0.09174466    -0.78300
O2226       O  0.80887684  0.51651712  0.04067687    -0.78500
C2227       C  0.81268414  0.51963107  0.01501310     1.02100
Cr2228     Cr  0.73513859  0.46589265  0.00512112     1.93700
Cr2229     Cr  0.70582899  0.47570333  0.06066886     1.93200
Cr2230     Cr  0.77397043  0.47027140  0.05807970     1.39100
O2231       O  0.73794953  0.47069018  0.04125863    -1.23600
O2232       O  0.67724687  0.18680687  0.00292994    -0.85800
O2233       O  0.73064450  0.25503918  0.00771542    -0.82900
C2234       C  0.75716717  0.28288437  0.01654153     0.97600
O2235       O  0.77998756  0.27996397  0.02990348    -0.82900
O2236       O  0.73703040  0.25372273  0.07814957    -0.85600
C2237       C  0.71393903  0.23052420  0.09450977     1.02200
O2238       O  0.70056605  0.19740437  0.09025584    -0.78300
O2239       O  0.66129884  0.17088889  0.04554227    -0.78500
C2240       C  0.65439558  0.17731581  0.02221823     1.02100
O2241       O  0.72916966  0.16376480  0.99631665    -0.85800
O2242       O  0.78382679  0.23266819  0.99812875    -0.82900
C2243       C  0.80783752  0.23288850  0.01289793     0.97700
O2244       O  0.80458882  0.23139495  0.03865555    -0.82900
O2245       O  0.77018601  0.21609653  0.08929907    -0.85500
C2246       C  0.75871724  0.18388507  0.09393769     1.02100
O2247       O  0.73758348  0.16025408  0.07788993    -0.78300
O2248       O  0.69793368  0.13157169  0.03201046    -0.78500
C2249       C  0.71307488  0.13442369  0.00899281     1.02100
Cr2250     Cr  0.73052876  0.20925778  0.00421495     1.93700
Cr2251     Cr  0.76993995  0.24222812  0.05724336     1.93200
Cr2252     Cr  0.70183108  0.16797429  0.05936273     1.39100
O2253       O  0.73375585  0.20590113  0.04023465    -1.23600
C2254       C  0.71335185  0.04970912  0.99604318     0.79700
N2255       N  0.70443634  0.04466424  0.46863688    -0.78600
C2256       C  0.69953617  0.06903202  0.45512342     0.82200
N2257       N  0.70333572  0.09802441  0.46874636    -0.78500
C2258       C  0.71062231  0.10271777  0.99562676     0.82300
N2259       N  0.71538018  0.07833904  0.00955690    -0.80200
C2260       C  0.76105272  0.38396770  0.01097940    -0.00600
C2261       C  0.78976226  0.38220689  0.02218190    -0.12500
C2262       C  0.79028750  0.35031481  0.02279362     0.01600
C2263       C  0.76122915  0.31867718  0.01214742    -0.00700
C2264       C  0.73401795  0.32107832  0.99884117    -0.12400
C2265       C  0.73377061  0.35322516  0.99795599     0.01500
H2266       H  0.81149011  0.40560988  0.03156600     0.14500
H2267       H  0.71206659  0.29744459  0.98984326     0.14500
C2268       C  0.70467515  0.35323556  0.98400155     0.36100
C2269       C  0.82064420  0.35117759  0.03542501     0.36000
N2270       N  0.68135326  0.35294437  0.97258824    -0.44200
N2271       N  0.84500840  0.35210328  0.04563352    -0.44200
C2272       C  0.55804528  0.18301513  0.01599098    -0.00600
C2273       C  0.56042649  0.16085908  0.03557332    -0.12500
C2274       C  0.59050318  0.15712767  0.03704760     0.01600
C2275       C  0.61955380  0.17566696  0.01835238    -0.00700
C2276       C  0.61658288  0.19657353  0.99781809    -0.12400
C2277       C  0.58629494  0.20053650  0.99657758     0.01500
H2278       H  0.53906497  0.14714446  0.05068050     0.14500
H2279       H  0.63858072  0.21107448  0.98336265     0.14500
C2280       C  0.58497487  0.22243576  0.97511564     0.36100
C2281       C  0.59076915  0.13475213  0.05868597     0.36000
N2282       N  0.58349227  0.23690632  0.45742283    -0.44200
N2283       N  0.59085226  0.11711669  0.07628564    -0.44200
C2284       C  0.55299604  0.32970991  0.01572820    -0.00600
C2285       C  0.55954407  0.35564738  0.03567947    -0.12500
C2286       C  0.59223963  0.38745294  0.03662775     0.01600
C2287       C  0.61998257  0.39402733  0.01745983    -0.00700
C2288       C  0.61189201  0.37050089  0.99531438    -0.12400
C2289       C  0.57852407  0.33869936  0.99409279     0.01500
H2290       H  0.53963673  0.35045586  0.05160482     0.14500
H2291       H  0.63215439  0.37604025  0.97965678     0.14500
C2292       C  0.57153356  0.31593007  0.97061284     0.36100
C2293       C  0.59663554  0.41228083  0.05819480     0.36000
N2294       N  0.56357973  0.30265172  0.45140092    -0.44200
N2295       N  0.60003027  0.43198291  0.07554958    -0.44200
C2296       C  0.79308393  0.17556935  0.17291521    -0.00600
C2297       C  0.81743634  0.19286737  0.15114428    -0.12500
C2298       C  0.80627705  0.19353374  0.12496249     0.01600
C2299       C  0.76967952  0.17610648  0.11960822    -0.00700
C2300       C  0.74469530  0.16127782  0.14139822    -0.12400
C2301       C  0.75626399  0.16148972  0.16811611     0.01500
H2302       H  0.84490700  0.20284262  0.15352821     0.14500
H2303       H  0.71654885  0.15094297  0.13775245     0.14500
C2304       C  0.73025170  0.14753482  0.19030508     0.36100
C2305       C  0.83319878  0.21210744  0.10369696     0.36000
N2306       N  0.70953773  0.13680963  0.20821082    -0.44200
N2307       N  0.85473389  0.22694054  0.08676026    -0.44200
C2308       C  0.80451378  0.08728194  0.16496079    -0.00600
C2309       C  0.77352559  0.05374121  0.16782248    -0.12500
C2310       C  0.75903141  0.03185001  0.14489914     0.01600
C2311       C  0.77736913  0.04247908  0.11943706    -0.00700
C2312       C  0.80846582  0.07490553  0.11674227    -0.12400
C2313       C  0.82053560  0.09820858  0.13853712     0.01500
H2314       H  0.75934675  0.04591676  0.18738779     0.14500
H2315       H  0.82145595  0.08335328  0.09671923     0.14500
C2316       C  0.84297693  0.13457369  0.13068903     0.36100
C2317       C  0.72428924  0.49829508  0.14833434     0.36000
N2318       N  0.85837815  0.16262880  0.12114742    -0.44200
N2319       N  0.69559080  0.47443454  0.15130997    -0.44200
C2320       C  0.93124026  0.20024536  0.13224811    -0.00600
C2321       C  0.92282074  0.22611654  0.14081589    -0.12500
C2322       C  0.91045519  0.22559830  0.16764984     0.01600
C2323       C  0.90418800  0.19722964  0.18546286    -0.00700
C2324       C  0.92569308  0.18197319  0.18003736    -0.12400
C2325       C  0.93630709  0.18045870  0.15293724     0.01500
H2326       H  0.92322605  0.24493729  0.12614438     0.14500
H2327       H  0.92668747  0.16434829  0.19514350     0.14500
C2328       C  0.94867460  0.15576986  0.14700168     0.36100
C2329       C  0.90074891  0.25191986  0.17457215     0.36000
N2330       N  0.95823085  0.13565663  0.14244198    -0.44200
N2331       N  0.89151650  0.27226811  0.17894134    -0.44200
C2332       C  0.89327487  0.48946733  0.18409001    -0.00600
C2333       C  0.89381997  0.01631221  0.19370108    -0.12500
C2334       C  0.92442946  0.05018098  0.19369935     0.01600
C2335       C  0.95631858  0.05570881  0.18080894    -0.00700
C2336       C  0.95589627  0.02751533  0.16629445    -0.12400
C2337       C  0.92402712  0.49667605  0.16815451     0.01500
H2338       H  0.87002882  0.01257569  0.20453574     0.14500
H2339       H  0.98023508  0.03164829  0.15623227     0.14500
C2340       C  0.92544540  0.46981051  0.15144909     0.36100
C2341       C  0.92260407  0.07864446  0.20774091     0.36000
N2342       N  0.92686977  0.44849107  0.13798170    -0.44200
N2343       N  0.92106715  0.10134725  0.21908209    -0.44200
C2344       C  0.89415802  0.34734192  0.19182546    -0.00600
C2345       C  0.91564638  0.35945788  0.16783932    -0.12500
C2346       C  0.94901580  0.36119446  0.16611316     0.01600
C2347       C  0.96157231  0.35088880  0.18873586    -0.00700
C2348       C  0.94002117  0.33826976  0.21240538    -0.12400
C2349       C  0.90673785  0.33611900  0.21419449     0.01500
H2350       H  0.90659415  0.36792816  0.15044071     0.14500
H2351       H  0.94935703  0.33010330  0.22984475     0.14500
C2352       C  0.88622172  0.32139364  0.23926240     0.36100
C2353       C  0.96919492  0.37240504  0.14065234     0.36000
N2354       N  0.86993288  0.30947204  0.25935330    -0.44200
N2355       N  0.98520712  0.38113255  0.12015353    -0.44200
C2356       C  0.60517936  0.49149802  0.18541629    -0.00600
C2357       C  0.58108846  0.99364487  0.16775371    -0.12500
C2358       C  0.57791220  0.02441125  0.16644785     0.01600
C2359       C  0.59913229  0.05424736  0.18334199    -0.00700
C2360       C  0.62477195  0.05279632  0.19973757    -0.12400
C2361       C  0.62853371  0.52179422  0.20091727     0.01500
H2362       H  0.56288443  0.47118626  0.15605897     0.14500
H2363       H  0.64187158  0.07528999  0.21253604     0.14500
C2364       C  0.65648164  0.52249809  0.21708803     0.36100
C2365       C  0.55253426  0.02418084  0.14762550     0.36000
N2366       N  0.67899478  0.52319833  0.22995287    -0.44200
N2367       N  0.53231262  0.02361710  0.13220340    -0.44200
C2368       C  0.59573519  0.23775646  0.33702891    -0.00600
C2369       C  0.59336185  0.25472936  0.31315718    -0.12500
C2370       C  0.59093205  0.24012043  0.28722314     0.01600
C2371       C  0.59044270  0.20770413  0.28472296    -0.00700
C2372       C  0.58845942  0.18864172  0.30850963    -0.12400
C2373       C  0.59048261  0.20310265  0.33453156     0.01500
H2374       H  0.59667828  0.28106067  0.31418489     0.14500
H2375       H  0.58583743  0.16251177  0.30676874     0.14500
C2376       C  0.58856679  0.18257017  0.35825702     0.36100
C2377       C  0.59209646  0.26027879  0.26345035     0.36000
N2378       N  0.58688027  0.16592779  0.37719979    -0.44200
N2379       N  0.59310340  0.27617386  0.24422775    -0.44200
C2380       C  0.70324492  0.30535224  0.33902175    -0.00600
C2381       C  0.68896210  0.28418248  0.31532594    -0.12500
C2382       C  0.70428760  0.29645261  0.28941235     0.01600
C2383       C  0.73450717  0.33068655  0.28661276    -0.00700
C2384       C  0.75163626  0.34969128  0.31039581    -0.12400
C2385       C  0.73688275  0.33677604  0.33645679     0.01500
H2386       H  0.66407846  0.25907058  0.31634249     0.14500
H2387       H  0.77667565  0.37479689  0.30866979     0.14500
C2388       C  0.75604353  0.35676052  0.36018783     0.36100
C2389       C  0.68741084  0.27404297  0.26601994     0.36000
N2390       N  0.77146520  0.37274649  0.37919931    -0.44200
N2391       N  0.67427113  0.25609278  0.24721587    -0.44200
C2392       C  0.63669843  0.34584318  0.33977146    -0.00600
C2393       C  0.66024714  0.35365613  0.31691753    -0.12500
C2394       C  0.65035685  0.35723209  0.29064292     0.01600
C2395       C  0.61622634  0.35263823  0.28672814    -0.00700
C2396       C  0.59517462  0.35043910  0.30984418    -0.12400
C2397       C  0.60576730  0.34828460  0.33625428     0.01500
H2398       H  0.68521068  0.35396386  0.31880106     0.14500
H2399       H  0.57020759  0.35021456  0.30731148     0.14500
C2400       C  0.58405840  0.34753288  0.35935586     0.36100
C2401       C  0.67485650  0.36376177  0.26796811     0.36000
N2402       N  0.56685483  0.34743795  0.37784296    -0.44200
N2403       N  0.69426267  0.36945683  0.24955389    -0.44200
C2404       C  0.78389789  0.22677736  0.35586913    -0.00600
C2405       C  0.78100644  0.19994481  0.33803661    -0.12500
C2406       C  0.74958357  0.16640630  0.33738959     0.01600
C2407       C  0.71990213  0.15947566  0.35448673    -0.00700
C2408       C  0.72205465  0.18729324  0.37078147    -0.12400
C2409       C  0.75350389  0.22054294  0.37168274     0.01500
H2410       H  0.80421250  0.20427908  0.32597299     0.14500
H2411       H  0.69938395  0.18264478  0.38369533     0.14500
C2412       C  0.75394629  0.24749886  0.38949117     0.36100
C2413       C  0.75000699  0.13886528  0.32091922     0.36000
N2414       N  0.75420562  0.26896980  0.40383312    -0.44200
N2415       N  0.75076997  0.11696430  0.30776566    -0.44200
C2416       C  0.92260054  0.15486450  0.35115365    -0.00600
C2417       C  0.95030228  0.18489136  0.36406861    -0.12500
C2418       C  0.95115192  0.21754086  0.36510131     0.01600
C2419       C  0.92381421  0.22125665  0.35273311    -0.00700
C2420       C  0.89669045  0.19158677  0.33897715    -0.12400
C2421       C  0.89585089  0.15878302  0.33800319     0.01500
H2422       H  0.97120880  0.18276321  0.37423465     0.14500
H2423       H  0.87551893  0.19372347  0.32927247     0.14500
C2424       C  0.86683900  0.12975250  0.32364405     0.36100
C2425       C  0.97998335  0.24607601  0.38000172     0.36000
N2426       N  0.84348856  0.10660971  0.31211192    -0.44200
N2427       N  0.00309131  0.26866176  0.39211660    -0.44200
C2428       C  0.72743372  0.02084041  0.34977234    -0.00600
C2429       C  0.75794631  0.04953166  0.36106813    -0.12500
C2430       C  0.78932283  0.04819479  0.36406710     0.01600
C2431       C  0.79129482  0.01851641  0.35433606    -0.00700
C2432       C  0.76130853  0.99032713  0.34188369    -0.12400
C2433       C  0.72918860  0.99099706  0.34002251     0.01500
H2434       H  0.75660962  0.07224025  0.36905227     0.14500
H2435       H  0.77054131  0.47812279  0.32747010     0.14500
C2436       C  0.70736993  0.47263093  0.31808712     0.36100
C2437       C  0.81875533  0.07707780  0.37824258     0.36000
N2438       N  0.68556110  0.45204649  0.30386934    -0.47800
N2439       N  0.84213429  0.10010399  0.38982652    -0.44200
C2440       C  0.92667573  0.39744452  0.51202263    -0.00600
C2441       C  0.91393390  0.40918283  0.49034318    -0.12500
C2442       C  0.91295099  0.39740084  0.46361671     0.01600
C2443       C  0.92363560  0.37226331  0.45808013    -0.00700
C2444       C  0.93019471  0.35593185  0.48032627    -0.12400
C2445       C  0.93082910  0.36767519  0.50718876     0.01500
H2446       H  0.90770316  0.43005689  0.49337357     0.14500
H2447       H  0.93511525  0.33406078  0.47679338     0.14500
C2448       C  0.93998198  0.35020768  0.02833394     0.36100
C2449       C  0.90239910  0.41282429  0.44225339     0.36000
N2450       N  0.94690466  0.33676987  0.04563701    -0.44200
N2451       N  0.89366005  0.42470066  0.42497660    -0.44200
C2452       C  0.53168595  0.47271098  0.50677839    -0.00600
C2453       C  0.51762148  0.45223340  0.48274794    -0.12500
C2454       C  0.53472058  0.46414531  0.45729108     0.01600
C2455       C  0.56631967  0.00311995  0.45463465    -0.00700
C2456       C  0.58477247  0.01721383  0.47916531    -0.12400
C2457       C  0.56679085  0.00687927  0.50461309     0.01500
H2458       H  0.49200564  0.42782846  0.48328679     0.14500
H2459       H  0.61323196  0.03647340  0.47837945     0.14500
C2460       C  0.58636764  0.02240947  0.52929623     0.36100
C2461       C  0.51954215  0.44196641  0.43350642     0.36000
N2462       N  0.59731040  0.05597201  0.04503096    -0.44200
N2463       N  0.50775329  0.42426163  0.41437388    -0.44200
C2464       C  0.93746509  0.01301967  0.45603935    -0.00600
C2465       C  0.90972666  0.99772828  0.47581738    -0.12500
C2466       C  0.92007336  0.49558965  0.50362014     0.01600
C2467       C  0.95416300  0.49972653  0.50844126    -0.00700
C2468       C  0.97883525  0.51053656  0.48604084    -0.12400
C2469       C  0.97302326  0.02953154  0.46476361     0.01500
H2470       H  0.88251372  0.98921969  0.46998430     0.14500
H2471       H  0.00583658  0.51615631  0.48847963     0.14500
C2472       C  0.00286795  0.04991342  0.44611034     0.36100
C2473       C  0.89475542  0.48923303  0.52564097     0.36000
N2474       N  0.02674000  0.06641164  0.43123662    -0.44200
N2475       N  0.86770513  0.47541912  0.03990486    -0.44200
C2476       C  0.50796778  0.07343996  0.83257668     0.79700
N2477       N  0.51298744  0.08158269  0.80550341    -0.78600
C2478       C  0.54092164  0.08298391  0.79117388     0.82200
N2479       N  0.56414651  0.07603163  0.80416469    -0.78500
C2480       C  0.55985994  0.06815784  0.83135594     0.82300
N2481       N  0.53196242  0.06734496  0.84571255    -0.80200
C2482       C  0.56313861  0.43319234  0.83352720     0.79700
N2483       N  0.56730928  0.42831654  0.80654290    -0.78600
C2484       C  0.54142744  0.40017974  0.79266338     0.82200
N2485       N  0.51094402  0.37642861  0.80609414    -0.78500
C2486       C  0.50615686  0.38076419  0.83317562     0.82300
N2487       N  0.53247468  0.40907671  0.84698008    -0.80200
C2488       C  0.96057923  0.48417264  0.03497946     0.02600
C2489       C  0.93551432  0.44782750  0.03992453    -0.13500
C2490       C  0.94586297  0.42256856  0.03358683     0.00100
C2491       C  0.98267338  0.43397276  0.03453465    -0.12000
C2492       C  0.50653555  0.46810067  0.03121713     0.02600
C2493       C  0.99779851  0.99825252  0.03851172    -0.11400
H2494       H  0.90726812  0.43853862  0.03910549     0.08200
H2495       H  0.48870755  0.41315666  0.02897158     0.05800
H2496       H  0.51704898  0.02549001  0.03402508     0.05600
O2497       O  0.84569559  0.02078948  0.83891643    -0.85800
O2498       O  0.89738657  0.09085073  0.84414934    -0.82900
C2499       C  0.92217010  0.11904806  0.85432987     0.97600
O2500       O  0.94630012  0.11759938  0.86741355    -0.82900
O2501       O  0.90827214  0.09088679  0.91726248    -0.85600
C2502       C  0.88457684  0.06736361  0.93304757     1.02200
O2503       O  0.86988955  0.03458609  0.92745848    -0.78300
O2504       O  0.83048620  0.01314489  0.88229461    -0.78500
C2505       C  0.82384182  0.01660722  0.85803104     1.02100
O2506       O  0.90043275  0.00163174  0.83409150    -0.85800
O2507       O  0.95293803  0.07224698  0.83339072    -0.82900
C2508       C  0.97718195  0.07179199  0.84729316     0.97700
O2509       O  0.97412877  0.06960551  0.87306235    -0.82900
O2510       O  0.94118505  0.05131129  0.92431552    -0.85500
C2511       C  0.92670478  0.01859526  0.92920297     1.02100
O2512       O  0.90360965  0.99578347  0.91353683    -0.78300
O2513       O  0.86496793  0.47022762  0.86726847    -0.78500
C2514       C  0.88210415  0.47279871  0.84523888     1.02100
Cr2515     Cr  0.89948068  0.04622443  0.84062188     1.93700
Cr2516     Cr  0.93957620  0.07941916  0.89369322     1.93200
Cr2517     Cr  0.86924985  0.00611765  0.89558846     1.39100
O2518       O  0.90263885  0.04354773  0.87678633    -1.23600
O2519       O  0.89427512  0.25375116  0.84636897    -0.85800
O2520       O  0.84087554  0.26910964  0.84093156    -0.82900
C2521       C  0.81811145  0.25706910  0.86041859     0.97600
O2522       O  0.82616274  0.27056795  0.88380696    -0.82900
O2523       O  0.86819702  0.28683049  0.92741086    -0.85600
C2524       C  0.88211440  0.26763262  0.93168884     1.02200
O2525       O  0.90560788  0.26792936  0.91559850    -0.78300
O2526       O  0.94506475  0.28048475  0.86683693    -0.78500
C2527       C  0.92070542  0.25283482  0.85570497     1.02100
O2528       O  0.94803480  0.32868958  0.83332402    -0.85800
O2529       O  0.89343302  0.34321786  0.83193069    -0.82900
C2530       C  0.87687405  0.35644646  0.84422175     0.97700
O2531       O  0.86195527  0.34500853  0.86737676    -0.82900
O2532       O  0.90473923  0.36049765  0.91107165    -0.85500
C2533       C  0.92295428  0.35822211  0.92967493     1.02100
O2534       O  0.93750977  0.33981320  0.92555459    -0.78300
O2535       O  0.96982627  0.35489928  0.87278727    -0.78500
C2536       C  0.97266502  0.35389030  0.84704448     1.02100
Cr2537     Cr  0.89460323  0.29939402  0.84094562     1.93700
Cr2538     Cr  0.86768293  0.31522320  0.89564869     1.93200
Cr2539     Cr  0.93670592  0.31097912  0.89342421     1.39100
O2540       O  0.89917034  0.30849453  0.87663472    -1.23600
O2541       O  0.67473920  0.09915347  0.83979064    -0.85800
O2542       O  0.69090678  0.04682364  0.84353749    -0.82900
C2543       C  0.69289617  0.02061934  0.85187800     0.97600
O2544       O  0.66645521  0.99583567  0.86436900    -0.82900
O2545       O  0.67942459  0.03535758  0.91356031    -0.85600
C2546       C  0.67894339  0.05813103  0.92982033     1.02200
O2547       O  0.65797361  0.07019265  0.92640161    -0.78300
O2548       O  0.67243414  0.11277308  0.88271914    -0.78500
C2549       C  0.68641259  0.12134009  0.85918864     1.02100
O2550       O  0.60043271  0.04696454  0.83213113    -0.85800
O2551       O  0.61531813  0.99251217  0.83259395    -0.82900
C2552       C  0.59219327  0.46462955  0.84751516     0.97700
O2553       O  0.59277038  0.46664990  0.87335540    -0.82900
O2554       O  0.60688559  0.00013324  0.92486014    -0.85500
C2555       C  0.58553609  0.01118208  0.92923753     1.02100
O2556       O  0.58379165  0.03230778  0.91282636    -0.78300
O2557       O  0.59754186  0.07583750  0.86850857    -0.78500
C2558       C  0.58700906  0.06292716  0.84497130     1.02100
Cr2559     Cr  0.64460558  0.04569739  0.83992336     1.93700
Cr2560     Cr  0.63597171  0.00319570  0.89219896     1.93200
Cr2561     Cr  0.62846778  0.07023972  0.89567250     1.39100
O2562       O  0.63617187  0.04008754  0.87587787    -1.23600
C2563       C  0.87409763  0.38507224  0.83064774     0.79700
N2564       N  0.87850746  0.41426176  0.84461923    -0.78600
C2565       C  0.87673021  0.44066731  0.83108097     0.82200
N2566       N  0.86901384  0.43709405  0.80403334    -0.78500
C2567       C  0.86332774  0.40749733  0.79036250     0.82300
N2568       N  0.86628516  0.38183317  0.80371863    -0.80200
C2569       C  0.67546578  0.39745697  0.66257790     0.79700
N2570       N  0.67980210  0.40319651  0.63527922    -0.78600
C2571       C  0.71019744  0.40920720  0.62219550     0.82200
N2572       N  0.73627221  0.40838355  0.63660617    -0.78500
C2573       C  0.73210938  0.40193166  0.66405363     0.82300
N2574       N  0.70193221  0.39738126  0.67720853    -0.80200
C2575       C  0.54559253  0.27159778  0.66347201     0.79700
N2576       N  0.54976207  0.24600807  0.67607982    -0.78600
C2577       C  0.54910332  0.21888936  0.66111747     0.82200
N2578       N  0.04363778  0.21682442  0.63324607    -0.78500
C2579       C  0.03929773  0.24205534  0.62065697     0.82300
N2580       N  0.04004035  0.26883323  0.63588231    -0.80200
C2581       C  0.63643990  0.32289873  0.86519355     0.02600
C2582       C  0.60805336  0.28756301  0.86869793    -0.13500
C2583       C  0.61518150  0.25984010  0.86372435     0.00100
C2584       C  0.65022693  0.26678798  0.86792166    -0.12000
C2585       C  0.67845495  0.30197833  0.86427021     0.02600
C2586       C  0.67112458  0.32950877  0.87017537    -0.11400
H2587       H  0.58109493  0.28150228  0.86448050     0.08200
H2588       H  0.65613538  0.24581227  0.86326175     0.05800
H2589       H  0.69255189  0.35684358  0.86774642     0.05600
O2590       O  0.52452782  0.37997582  0.67815321    -0.85800
O2591       O  0.59395999  0.43274597  0.67128927    -0.82900
C2592       C  0.60221507  0.45517498  0.69044425     0.97600
O2593       O  0.60661198  0.44742926  0.71418429    -0.82900
O2594       O  0.58353456  0.40656448  0.75944207    -0.85600
C2595       C  0.55051371  0.39170424  0.76554155     1.02200
O2596       O  0.52695888  0.36781643  0.75036474    -0.78300
O2597       O  0.99828792  0.32834584  0.70110797    -0.78500
C2598       C  0.99532941  0.35220821  0.68889209     1.02100
O2599       O  0.54455195  0.32595056  0.66567631    -0.85800
O2600       O  0.61424727  0.37855972  0.66423861    -0.82900
C2601       C  0.64395497  0.39576138  0.67585464     0.97700
O2602       O  0.64744521  0.41328569  0.69747947    -0.82900
O2603       O  0.62163179  0.37177613  0.74258051    -0.85500
C2604       C  0.60046288  0.35155046  0.76081571     1.02100
O2605       O  0.56736003  0.33610088  0.75709371    -0.78300
O2606       O  0.54944998  0.30425018  0.70468607    -0.78500
C2607       C  0.54677068  0.30204389  0.67887786     1.02100
Cr2608     Cr  0.56966716  0.37903428  0.67278212     1.93700
Cr2609     Cr  0.61176353  0.40728829  0.72659404     1.93200
Cr2610     Cr  0.53867430  0.33732915  0.72644017     1.39100
O2611       O  0.57357825  0.37500742  0.70871535    -1.23600
O2612       O  0.56754855  0.08629899  0.67760211    -0.85800
O2613       O  0.51502120  0.10322864  0.67020282    -0.82900
C2614       C  0.99147699  0.08906165  0.68892795     0.97600
O2615       O  0.99805372  0.10142494  0.71273907    -0.82900
O2616       O  0.53689529  0.11955949  0.75848933    -0.85600
C2617       C  0.55039095  0.10041966  0.76420145     1.02200
O2618       O  0.57441395  0.10011702  0.74894972    -0.78300
O2619       O  0.61629368  0.11157622  0.70104233    -0.78500
C2620       C  0.59332971  0.08489104  0.68785824     1.02100
O2621       O  0.62214020  0.16089231  0.66644160    -0.85800
O2622       O  0.56910178  0.17732879  0.66318979    -0.82900
C2623       C  0.55113378  0.18969995  0.67449356     0.97700
O2624       O  0.53366084  0.17660313  0.69650728    -0.82900
O2625       O  0.57418917  0.19281128  0.74148062    -0.85500
C2626       C  0.59270225  0.19153569  0.76032675     1.02100
O2627       O  0.60658673  0.17230751  0.75768920    -0.78300
O2628       O  0.64195450  0.18715784  0.70603900    -0.78500
C2629       C  0.64536872  0.18696620  0.68025361     1.02100
Cr2630     Cr  0.56862021  0.13251157  0.67226448     1.93700
Cr2631     Cr  0.53822219  0.14724463  0.72563769     1.93200
Cr2632     Cr  0.60717401  0.14288394  0.72650204     1.39100
O2633       O  0.57081623  0.14062774  0.70814105    -1.23600
O2634       O  0.86185961  0.42577587  0.67845113    -0.85800
O2635       O  0.84754483  0.35746494  0.67387462    -0.82900
C2636       C  0.85872645  0.34760282  0.69380827     0.97600
O2637       O  0.84275532  0.34072861  0.71656068    -0.82900
O2638       O  0.82421353  0.36537153  0.75990862    -0.85600
C2639       C  0.84471265  0.39833355  0.76432405     1.02200
O2640       O  0.84554719  0.42198069  0.74865706    -0.78300
O2641       O  0.83480899  0.44959053  0.69997060    -0.78500
C2642       C  0.86225654  0.45318355  0.68746979     1.02100
O2643       O  0.78718971  0.40280552  0.66553102    -0.85800
O2644       O  0.77282401  0.33409556  0.66377385    -0.82900
C2645       C  0.75838178  0.30450164  0.67612364     0.97700
O2646       O  0.76893655  0.30134334  0.69922666    -0.82900
O2647       O  0.75119605  0.32887432  0.74208203    -0.85500
C2648       C  0.75235211  0.34909851  0.76091203     1.02100
O2649       O  0.77265716  0.38213091  0.75809029    -0.78300
O2650       O  0.75984663  0.39922899  0.70503710    -0.78500
C2651       C  0.76093862  0.40108461  0.67912373     1.02100
Cr2652     Cr  0.81650435  0.37968633  0.67325567     1.93700
Cr2653     Cr  0.79740709  0.33702901  0.72765340     1.93200
Cr2654     Cr  0.80316535  0.41040243  0.72615739     1.39100
O2655       O  0.80589459  0.37540310  0.70893189    -1.23600
C2656       C  0.67636662  0.21631925  0.66530886     0.79700
N2657       N  0.70189050  0.24629579  0.67797093    -0.78600
C2658       C  0.72943067  0.27271273  0.66289414     0.82200
N2659       N  0.73169949  0.26864300  0.63545774    -0.78500
C2660       C  0.70684009  0.23859907  0.62291040     0.82300
N2661       N  0.67945490  0.21274088  0.63796432    -0.80200
C2662       C  0.89717837  0.10722768  0.50187110     0.79700
N2663       N  0.90020438  0.10461653  0.97441919    -0.78600
C2664       C  0.87606152  0.07557052  0.96044051     0.82200
N2665       N  0.84801328  0.04881566  0.97421647    -0.78500
C2666       C  0.84364852  0.05095111  0.50090686     0.82300
N2667       N  0.86846194  0.07979570  0.51536961    -0.80200
C2668       C  0.84181807  0.23683159  0.49994279     0.79700
N2669       N  0.84477295  0.24513578  0.97220456    -0.78600
C2670       C  0.87369811  0.24918579  0.95798410     0.82200
N2671       N  0.89850867  0.24455300  0.97087470    -0.78500
C2672       C  0.89602862  0.23591384  0.49841149     0.82300
N2673       N  0.86699554  0.23241590  0.51290027    -0.80200
C2674       C  0.80661455  0.16017392  0.69625129     0.02600
C2675       C  0.79270132  0.12335993  0.69526173    -0.13500
C2676       C  0.81584718  0.11126838  0.68740762     0.00100
C2677       C  0.85258274  0.13327366  0.69135010    -0.12000
C2678       C  0.86742843  0.17016648  0.69682410     0.02600
C2679       C  0.84294416  0.18186767  0.70333421    -0.11400
H2680       H  0.76474089  0.10643590  0.69034820     0.08200
H2681       H  0.86926625  0.12280822  0.68408848     0.05800
H2682       H  0.85250061  0.20973230  0.70681605     0.05600
O2683       O  0.51677875  0.26867437  0.50560897    -0.85800
O2684       O  0.52774352  0.21367722  0.50985602    -0.82900
C2685       C  0.52731231  0.18645495  0.51866464     0.97600
O2686       O  0.49988014  0.16370030  0.53129730    -0.82900
O2687       O  0.51814411  0.20773424  0.57954474    -0.85600
C2688       C  0.52009436  0.23294550  0.59458845     1.02200
O2689       O  0.50167422  0.24769014  0.59003527    -0.78300
O2690       O  0.50550117  0.28588194  0.54474906    -0.78500
C2691       C  0.52334256  0.29287668  0.52271291     1.02100
O2692       O  0.94020343  0.22195307  0.99768346    -0.85800
O2693       O  0.94888443  0.16368317  0.00094577    -0.82900
C2694       C  0.92583157  0.13892888  0.51612513     0.97700
O2695       O  0.92706811  0.14168912  0.54209882    -0.82900
O2696       O  0.95042181  0.17606920  0.59489581    -0.85500
C2697       C  0.93697939  0.19421914  0.60253139     1.02100
O2698       O  0.93006506  0.21037884  0.58468578    -0.78300
O2699       O  0.93223648  0.24283932  0.53636827    -0.78500
C2700       C  0.92458864  0.23280458  0.51182542     1.02100
Cr2701     Cr  0.48310408  0.21630358  0.50665829     1.93700
Cr2702     Cr  0.97363169  0.17553523  0.55992038     1.93200
Cr2703     Cr  0.96949966  0.24494251  0.56103809     1.39100
O2704       O  0.97551080  0.21271034  0.54243006    -1.23600
O2705       O  0.73408505  0.41987326  0.51004748    -0.85800
O2706       O  0.68163805  0.43685258  0.50504078    -0.82900
C2707       C  0.65845433  0.42397667  0.52434255     0.97600
O2708       O  0.66700523  0.43470738  0.54836788    -0.82900
O2709       O  0.70714665  0.44933173  0.59272342    -0.85600
C2710       C  0.71916756  0.42830411  0.59614846     1.02200
O2711       O  0.74197306  0.42792788  0.57971258    -0.78300
O2712       O  0.78381990  0.44318377  0.53188117    -0.78500
C2713       C  0.75954924  0.41716753  0.51905148     1.02100
O2714       O  0.78922107  0.49567231  0.99959099    -0.85800
O2715       O  0.73545750  0.51062468  0.99916551    -0.82900
C2716       C  0.71764333  0.52160048  0.51048422     0.97700
O2717       O  0.70186561  0.50892511  0.53320648    -0.82900
O2718       O  0.74407509  0.02159193  0.57767792    -0.85500
C2719       C  0.76426318  0.01922157  0.59450620     1.02100
O2720       O  0.77542522  0.99794504  0.59072008    -0.78300
O2721       O  0.80986309  0.51790744  0.54175140    -0.78500
C2722       C  0.81338185  0.52031725  0.51607120     1.02100
Cr2723     Cr  0.73597318  0.46609233  0.50643160     1.93700
Cr2724     Cr  0.70757935  0.47878782  0.56131658     1.93200
Cr2725     Cr  0.77499909  0.47232256  0.55967443     1.39100
O2726       O  0.73912004  0.47247498  0.54238521    -1.23600
O2727       O  0.67871084  0.18626799  0.50370407    -0.85800
O2728       O  0.73181860  0.25484191  0.50974082    -0.82900
C2729       C  0.75796677  0.28253257  0.51923070     0.97600
O2730       O  0.78117963  0.27947145  0.53192274    -0.82900
O2731       O  0.73825478  0.25233673  0.57987568    -0.85600
C2732       C  0.71488578  0.22898994  0.59597905     1.02200
O2733       O  0.70149582  0.19593231  0.59147980    -0.78300
O2734       O  0.66261314  0.17100986  0.54637112    -0.78500
C2735       C  0.65567937  0.17683835  0.52286415     1.02100
O2736       O  0.73110637  0.16402345  0.49712451    -0.85800
O2737       O  0.78554537  0.23317875  0.49939876    -0.82900
C2738       C  0.80947812  0.23291092  0.51395997     0.97700
O2739       O  0.80601172  0.23068714  0.53970771    -0.82900
O2740       O  0.77109244  0.21403803  0.59022304    -0.85500
C2741       C  0.75924927  0.18165187  0.59443902     1.02100
O2742       O  0.73791459  0.15843973  0.57823718    -0.78300
O2743       O  0.69834975  0.13121271  0.53211711    -0.78500
C2744       C  0.71407841  0.13436927  0.50932303     1.02100
Cr2745     Cr  0.73210900  0.20927533  0.50538787     1.93700
Cr2746     Cr  0.77118916  0.24112856  0.55868074     1.93200
Cr2747     Cr  0.70264329  0.16713133  0.56004867     1.39100
O2748       O  0.73502180  0.20523541  0.54133653    -1.23600
C2749       C  0.71224899  0.04883257  0.49576525     0.79700
N2750       N  0.70482380  0.04475048  0.96905364    -0.78600
C2751       C  0.69883046  0.06832517  0.95544742     0.82200
N2752       N  0.70222080  0.09732254  0.96882652    -0.78500
C2753       C  0.71113609  0.10266507  0.49567207     0.82300
N2754       N  0.71477723  0.07752006  0.50949058    -0.80200
C2755       C  0.76067900  0.38354345  0.51559035    -0.00600
C2756       C  0.78948782  0.38178320  0.52663993    -0.12500
C2757       C  0.79002156  0.34982126  0.52718750     0.01600
C2758       C  0.76114763  0.31821624  0.51626081    -0.00700
C2759       C  0.73325143  0.32038924  0.50393381    -0.12400
C2760       C  0.73265510  0.35236607  0.50352398     0.01500
H2761       H  0.81142284  0.40532842  0.53574811     0.14500
H2762       H  0.71102981  0.29665894  0.49527914     0.14500
C2763       C  0.70218467  0.35160588  0.49126792     0.36100
C2764       C  0.82025349  0.35057503  0.53995245     0.36000
N2765       N  0.67763299  0.35067148  0.48140490    -0.44200
N2766       N  0.84447720  0.35138278  0.55031511    -0.44200
C2767       C  0.55867762  0.18118254  0.51623588    -0.00600
C2768       C  0.56124159  0.15916077  0.53584789    -0.12500
C2769       C  0.59151047  0.15574573  0.53737050     0.01600
C2770       C  0.62051376  0.17439380  0.51864162    -0.00700
C2771       C  0.61706597  0.19459773  0.49775733    -0.12400
C2772       C  0.58660362  0.19830753  0.49650728     0.01500
H2773       H  0.54001160  0.14555358  0.55106889     0.14500
H2774       H  0.63890077  0.20893517  0.48314464     0.14500
C2775       C  0.58482854  0.21977843  0.47487853     0.36100
C2776       C  0.59215436  0.13377064  0.55919108     0.36000
N2777       N  0.58413632  0.23985404  0.95768110    -0.44200
N2778       N  0.59267129  0.11649532  0.57689696    -0.44200
C2779       C  0.55411946  0.32996328  0.51839823    -0.00600
C2780       C  0.56128832  0.35485507  0.53935196    -0.12500
C2781       C  0.59363755  0.38706598  0.54012268     0.01600
C2782       C  0.62072231  0.39493326  0.51993467    -0.00700
C2783       C  0.61183206  0.37243472  0.49702259    -0.12400
C2784       C  0.57858889  0.34043723  0.49585739     0.01500
H2785       H  0.54210886  0.34863993  0.55605308     0.14500
H2786       H  0.63130740  0.37905397  0.48051235     0.14500
C2787       C  0.57039468  0.31924349  0.47131252     0.36100
C2788       C  0.59816755  0.41103429  0.56241199     0.36000
N2789       N  0.56566921  0.29807453  0.95149047    -0.44200
N2790       N  0.60160717  0.43007877  0.58029808    -0.44200
C2791       C  0.79351701  0.17258954  0.67314711    -0.00600
C2792       C  0.81777902  0.18927276  0.65121520    -0.12500
C2793       C  0.80662283  0.19003595  0.62507513     0.01600
C2794       C  0.77003643  0.17316866  0.61986051    -0.00700
C2795       C  0.74509818  0.15842972  0.64167851    -0.12400
C2796       C  0.75668092  0.15855275  0.66837128     0.01500
H2797       H  0.84523535  0.19872474  0.65347208     0.14500
H2798       H  0.71696104  0.14826909  0.63807771     0.14500
C2799       C  0.73060494  0.14426138  0.69050014     0.36100
C2800       C  0.83350989  0.20826047  0.60371991     0.36000
N2801       N  0.70982781  0.13309079  0.70834725    -0.44200
N2802       N  0.85501876  0.22281612  0.58671226    -0.44200
C2803       C  0.80414254  0.08531135  0.66456735    -0.00600
C2804       C  0.77234908  0.05229273  0.66715129    -0.12500
C2805       C  0.75741287  0.03082636  0.64405950     0.01600
C2806       C  0.77592533  0.04132297  0.61867405    -0.00700
C2807       C  0.80772804  0.07312313  0.61623576    -0.12400
C2808       C  0.82041479  0.09608750  0.63819718     0.01500
H2809       H  0.75807290  0.04451452  0.68667705     0.14500
H2810       H  0.82100189  0.08140735  0.59629177     0.14500
C2811       C  0.84409011  0.13228521  0.63055581     0.36100
C2812       C  0.72640566  0.49939270  0.64810449     0.36000
N2813       N  0.86053548  0.16034936  0.62118086    -0.44200
N2814       N  0.69832223  0.47461180  0.65112559    -0.44200
C2815       C  0.93304579  0.19911569  0.63243767    -0.00600
C2816       C  0.92435404  0.22478471  0.64090626    -0.12500
C2817       C  0.91116721  0.22378270  0.66750654     0.01600
C2818       C  0.90478546  0.19529824  0.68529211    -0.00700
C2819       C  0.92652454  0.18022927  0.68011218    -0.12400
C2820       C  0.93780612  0.17915675  0.65313966     0.01500
H2821       H  0.92482337  0.24359607  0.62618647     0.14500
H2822       H  0.92715223  0.16233416  0.69516551     0.14500
C2823       C  0.95033700  0.15458698  0.64725781     0.36100
C2824       C  0.90009483  0.24925593  0.67369792     0.36000
N2825       N  0.96000743  0.13455781  0.64272438    -0.44200
N2826       N  0.88972459  0.26889016  0.67701402    -0.44200
C2827       C  0.89467098  0.48954883  0.68453630    -0.00600
C2828       C  0.89406652  0.01757107  0.69801989    -0.12500
C2829       C  0.92494289  0.05128716  0.69832633     0.01600
C2830       C  0.95608105  0.05719861  0.68385136    -0.00700
C2831       C  0.95436657  0.02990522  0.66727603    -0.12400
C2832       C  0.92459331  0.49724477  0.66738001     0.01500
H2833       H  0.87093156  0.01329327  0.71013609     0.14500
H2834       H  0.97791134  0.03444544  0.65569163     0.14500
C2835       C  0.92464768  0.47108383  0.64898689     0.36100
C2836       C  0.92405120  0.07921174  0.71399612     0.36000
N2837       N  0.92499859  0.45036832  0.63412285    -0.44200
N2838       N  0.92325491  0.10153468  0.72653916    -0.44200
C2839       C  0.89216667  0.34570681  0.69127028    -0.00600
C2840       C  0.91570922  0.36216661  0.66883970    -0.12500
C2841       C  0.94922636  0.36431512  0.66722100     0.01600
C2842       C  0.95987483  0.34985619  0.68839872    -0.00700
C2843       C  0.93625519  0.33309077  0.71059386    -0.12400
C2844       C  0.90271609  0.33048262  0.71213193     0.01500
H2845       H  0.90827225  0.37404018  0.65269569     0.14500
H2846       H  0.94393951  0.32167000  0.72693829     0.14500
C2847       C  0.87939104  0.31045696  0.73486082     0.36100
C2848       C  0.97174292  0.38095584  0.64339848     0.36000
N2849       N  0.86075219  0.29416030  0.75297866    -0.44200
N2850       N  0.98961246  0.39424984  0.62420407    -0.44200
C2851       C  0.60530061  0.49063995  0.68584027    -0.00600
C2852       C  0.57816792  0.99140116  0.67011846    -0.12500
C2853       C  0.57443519  0.02187057  0.66954324     0.01600
C2854       C  0.59729640  0.05243916  0.68521317    -0.00700
C2855       C  0.62430707  0.05154599  0.70021918    -0.12400
C2856       C  0.62763203  0.52050291  0.70212406     0.01500
H2857       H  0.56523560  0.47122822  0.65466522     0.14500
H2858       H  0.64234473  0.07440706  0.71231380     0.14500
C2859       C  0.65372540  0.52048619  0.72011579     0.36100
C2860       C  0.54626481  0.02026393  0.65320501     0.36000
N2861       N  0.67469099  0.52064273  0.73454072    -0.44200
N2862       N  0.52355202  0.01848359  0.63996531    -0.44200
C2863       C  0.59721680  0.23669759  0.83961646    -0.00600
C2864       C  0.59494690  0.25367003  0.81574715    -0.12500
C2865       C  0.59381388  0.23976263  0.78977480     0.01600
C2866       C  0.59348734  0.20743911  0.78718566    -0.00700
C2867       C  0.59135013  0.18820689  0.81095485    -0.12400
C2868       C  0.59289977  0.20242626  0.83704915     0.01500
H2869       H  0.59775456  0.27975009  0.81683136     0.14500
H2870       H  0.58899547  0.16219580  0.80915218     0.14500
C2871       C  0.59122493  0.18204439  0.86080415     0.36100
C2872       C  0.59679820  0.26093596  0.76613191     0.36000
N2873       N  0.58964459  0.16553026  0.87980275    -0.44200
N2874       N  0.59966287  0.27785783  0.74705266    -0.44200
C2875       C  0.70336728  0.30884438  0.84023386    -0.00600
C2876       C  0.68911621  0.28800014  0.81641406    -0.12500
C2877       C  0.70435947  0.30048406  0.79052858     0.01600
C2878       C  0.73495743  0.33445435  0.78781056    -0.00700
C2879       C  0.75170922  0.35360056  0.81167264    -0.12400
C2880       C  0.73664368  0.34071494  0.83772179     0.01500
H2881       H  0.66444575  0.26274271  0.81739026     0.14500
H2882       H  0.77677790  0.37868994  0.81002448     0.14500
C2883       C  0.75543010  0.36080081  0.86153287     0.36100
C2884       C  0.68699963  0.27855330  0.76702090     0.36000
N2885       N  0.77054977  0.37677486  0.88064398    -0.44200
N2886       N  0.67346651  0.26115096  0.74804783    -0.44200
C2887       C  0.63261234  0.34317356  0.84195205    -0.00600
C2888       C  0.65728284  0.35331413  0.81958989    -0.12500
C2889       C  0.64781714  0.35665884  0.79310793     0.01600
C2890       C  0.61310672  0.35007485  0.78838227    -0.00700
C2891       C  0.59034905  0.34513717  0.81105624    -0.12400
C2892       C  0.60020992  0.34269345  0.83768639     0.01500
H2893       H  0.68322846  0.35591531  0.82194571     0.14500
H2894       H  0.56459191  0.34306309  0.80801974     0.14500
C2895       C  0.57622803  0.33873221  0.86013025     0.36100
C2896       C  0.67366966  0.36527905  0.77107225     0.36000
N2897       N  0.55693451  0.33578879  0.87799533    -0.44200
N2898       N  0.69422155  0.37253927  0.75324263    -0.44200
C2899       C  0.78185066  0.22535389  0.85654749    -0.00600
C2900       C  0.77734506  0.19972792  0.83681409    -0.12500
C2901       C  0.74583643  0.16622483  0.83615718     0.01600
C2902       C  0.71761469  0.15804929  0.85520947    -0.00700
C2903       C  0.72114092  0.18477398  0.87346874    -0.12400
C2904       C  0.75266917  0.21791711  0.87443852     0.01500
H2905       H  0.79942486  0.20489637  0.82301890     0.14500
H2906       H  0.69956803  0.17926983  0.88792756     0.14500
C2907       C  0.75442460  0.24318841  0.89469892     0.36100
C2908       C  0.74469771  0.13992185  0.81731914     0.36000
N2909       N  0.75575217  0.26318164  0.91110351    -0.44200
N2910       N  0.74402602  0.11888196  0.80227582    -0.44200
C2911       C  0.92308911  0.15389990  0.85205358    -0.00600
C2912       C  0.94714173  0.18231942  0.86852909    -0.12500
C2913       C  0.94718954  0.21457297  0.86981551     0.01600
C2914       C  0.92314077  0.21968736  0.85383086    -0.00700
C2915       C  0.89960786  0.19162546  0.83680627    -0.12400
C2916       C  0.89929926  0.15907424  0.83578990     0.01500
H2917       H  0.96535168  0.17899855  0.88145297     0.14500
H2918       H  0.88090965  0.19487504  0.82443225     0.14500
C2919       C  0.87389584  0.13153928  0.81809088     0.36100
C2920       C  0.97090628  0.24083353  0.88913214     0.36000
N2921       N  0.85339460  0.10951168  0.80394588    -0.44200
N2922       N  0.98974536  0.26152815  0.90485774    -0.44200
C2923       C  0.72687842  0.02019615  0.84922075    -0.00600
C2924       C  0.75789080  0.04970219  0.85914398    -0.12500
C2925       C  0.78964466  0.04889574  0.86153695     0.01600
C2926       C  0.79138833  0.01873667  0.85274776    -0.00700
C2927       C  0.76090355  0.98976191  0.84145077    -0.12400
C2928       C  0.72855266  0.99010100  0.83999161     0.01500
H2929       H  0.75672749  0.07271086  0.86661782     0.14500
H2930       H  0.76769605  0.47033557  0.83192823     0.14500
C2931       C  0.70358579  0.46365850  0.82414455     0.36100
C2932       C  0.81961304  0.07873032  0.87445350     0.36000
N2933       N  0.68035353  0.44144556  0.81187531    -0.47800
N2934       N  0.84333455  0.10252404  0.88513918    -0.44200
C2935       C  0.92526426  0.39540104  0.01202674    -0.00600
C2936       C  0.91002575  0.40538794  0.99100330    -0.12500
C2937       C  0.90892993  0.39388604  0.96410587     0.01600
C2938       C  0.92211930  0.37081500  0.95784061    -0.00700
C2939       C  0.93082923  0.35566888  0.97970058    -0.12400
C2940       C  0.93135233  0.36692143  0.00667823     0.01500
H2941       H  0.90237788  0.42520478  0.99452874     0.14500
H2942       H  0.93759223  0.33511586  0.97579587     0.14500
C2943       C  0.93701451  0.34972201  0.52932750     0.36100
C2944       C  0.89573675  0.40770243  0.94341470     0.36000
N2945       N  0.94181606  0.33521004  0.54706282    -0.44200
N2946       N  0.88487496  0.41858093  0.92691931    -0.44200
C2947       C  0.52939405  0.47605214  0.00597936    -0.00600
C2948       C  0.51211402  0.45964370  0.98134051    -0.12500
C2949       C  0.52932459  0.47090717  0.95593781     0.01600
C2950       C  0.56581154  0.00161082  0.95528550    -0.00700
C2951       C  0.58154653  0.02368888  0.97802135    -0.12400
C2952       C  0.56588003  0.01340822  0.00424979     0.01500
H2953       H  0.48434793  0.43898144  0.98164441     0.14500
H2954       H  0.60636646  0.04882565  0.97529793     0.14500
C2955       C  0.58323213  0.03696738  0.02693249     0.36100
C2956       C  0.51014273  0.45323925  0.93151145     0.36000
N2957       N  0.60213158  0.03478746  0.54908723    -0.44200
N2958       N  0.49475685  0.43910907  0.91194925    -0.44200
C2959       C  0.93502907  0.00892506  0.95546569    -0.00600
C2960       C  0.91016187  0.99975133  0.97725262    -0.12500
C2961       C  0.91845388  0.49253602  0.00340949     0.01600
C2962       C  0.95346812  0.50114497  0.01074117    -0.00700
C2963       C  0.98105061  0.51894545  0.99074005    -0.12400
C2964       C  0.97041582  0.01880961  0.96106490     0.01500
H2965       H  0.88370514  0.99554961  0.97333999     0.14500
H2966       H  0.00882676  0.52906500  0.99531418     0.14500
C2967       C  0.99777328  0.03201621  0.93972762     0.36100
C2968       C  0.89028367  0.48291088  0.02368696     0.36000
N2969       N  0.01950253  0.04281817  0.92253304    -0.44200
N2970       N  0.87426555  0.48403166  0.54316522    -0.44200
C2971       C  0.50900146  0.57320051  0.33402352     0.79700
N2972       N  0.51376974  0.58133832  0.30699350    -0.78600
C2973       C  0.54126483  0.58231104  0.29241277     0.82200
N2974       N  0.56430437  0.57484562  0.30509264    -0.78500
C2975       C  0.56011179  0.56680717  0.33225185     0.82300
N2976       N  0.53270164  0.56651488  0.34689540    -0.80200
C2977       C  0.56290798  0.93775043  0.33313439     0.79700
N2978       N  0.56739764  0.93222727  0.30634963    -0.78600
C2979       C  0.54217371  0.90314477  0.29292403     0.82200
N2980       N  0.51202794  0.87912888  0.30663983    -0.78500
C2981       C  0.50698329  0.88408845  0.33357388     0.82300
N2982       N  0.53270185  0.91332840  0.34690594    -0.80200
C2983       C  0.95994402  0.98805026  0.53464235     0.02600
C2984       C  0.93533172  0.95143990  0.53907961    -0.13500
C2985       C  0.94642419  0.92670599  0.53290663     0.00100
C2986       C  0.98333968  0.93875504  0.53363926    -0.12000
C2987       C  0.50756622  0.97304284  0.53096201     0.02600
C2988       C  0.99810400  0.49552540  0.53743435    -0.11400
H2989       H  0.90699027  0.94154761  0.53808787     0.08200
H2990       H  0.49184287  0.91865318  0.52861936     0.05800
H2991       H  0.51783666  0.51969212  0.53138109     0.05600
O2992       O  0.84774430  0.52325252  0.34014927    -0.85800
O2993       O  0.90003772  0.59307306  0.34590577    -0.82900
C2994       C  0.92499341  0.62110470  0.35612996     0.97600
O2995       O  0.94864163  0.61931544  0.36974873    -0.82900
O2996       O  0.91091862  0.59155700  0.41932914    -0.85600
C2997       C  0.88717514  0.56792885  0.43496100     1.02200
O2998       O  0.87211051  0.53529364  0.42896447    -0.78300
O2999       O  0.83337821  0.51820519  0.38359557    -0.78500
C3000       C  0.82676585  0.52128831  0.35924731     1.02100
O3001       O  0.90185163  0.50362127  0.33483042    -0.85800
O3002       O  0.95464473  0.57411870  0.33470012    -0.82900
C3003       C  0.97842565  0.57257464  0.34834419     0.97700
O3004       O  0.97546543  0.56991612  0.37405606    -0.82900
O3005       O  0.94218033  0.54985828  0.42481773    -0.85500
C3006       C  0.92681263  0.51681553  0.42882742     1.02100
O3007       O  0.90332213  0.49503647  0.41285525    -0.78300
O3008       O  0.86476002  0.97069167  0.36737294    -0.78500
C3009       C  0.88119151  0.97320300  0.34498895     1.02100
Cr3010     Cr  0.90143324  0.54833839  0.34179530     1.93700
Cr3011     Cr  0.94152771  0.57993814  0.39517854     1.93200
Cr3012     Cr  0.87014416  0.50782579  0.39609047     1.39100
O3013       O  0.90437484  0.54505459  0.37785165    -1.23600
O3014       O  0.89653228  0.75500565  0.34680129    -0.85800
O3015       O  0.84184025  0.76886136  0.34138043    -0.82900
C3016       C  0.81855802  0.75656221  0.36052525     0.97600
O3017       O  0.82613381  0.76951515  0.38414674    -0.82900
O3018       O  0.86870957  0.78568177  0.42803218    -0.85600
C3019       C  0.88375874  0.76747646  0.43246148     1.02200
O3020       O  0.90777075  0.76875879  0.41641533    -0.78300
O3021       O  0.94719338  0.78244618  0.36748985    -0.78500
C3022       C  0.92342290  0.75475279  0.35596500     1.02100
O3023       O  0.94893859  0.83021638  0.33409879    -0.85800
O3024       O  0.89347987  0.84352486  0.33308858    -0.82900
C3025       C  0.87664280  0.85643763  0.34544062     0.97700
O3026       O  0.86145151  0.84444117  0.36846573    -0.82900
O3027       O  0.90390245  0.85971976  0.41200607    -0.85500
C3028       C  0.92250297  0.85820224  0.43059871     1.02100
O3029       O  0.93770191  0.84036625  0.42661325    -0.78300
O3030       O  0.97020723  0.85663356  0.37355546    -0.78500
C3031       C  0.97321719  0.85575013  0.34778630     1.02100
Cr3032     Cr  0.89556224  0.80003113  0.34168850     1.93700
Cr3033     Cr  0.86752930  0.81431571  0.39644538     1.93200
Cr3034     Cr  0.93781809  0.81218260  0.39421608     1.39100
O3035       O  0.89971306  0.80862247  0.37743817    -1.23600
O3036       O  0.67411572  0.59933022  0.33955146    -0.85800
O3037       O  0.69243090  0.54876092  0.34313834    -0.82900
C3038       C  0.69551475  0.52326880  0.35154885     0.97600
O3039       O  0.66956138  0.49778059  0.36392138    -0.82900
O3040       O  0.68111376  0.53590106  0.41370421    -0.85600
C3041       C  0.68025046  0.55839168  0.43009361     1.02200
O3042       O  0.65918999  0.57027424  0.42667349    -0.78300
O3043       O  0.67325039  0.61278411  0.38271457    -0.78500
C3044       C  0.68642203  0.62148430  0.35891117     1.02100
O3045       O  0.60039098  0.54545181  0.33273069    -0.85800
O3046       O  0.61758083  0.49270916  0.33224738    -0.82900
C3047       C  0.59161282  0.96960163  0.34684088     0.97700
O3048       O  0.59237204  0.97152561  0.37268495    -0.82900
O3049       O  0.60847299  0.49885437  0.42454767    -0.85500
C3050       C  0.58671361  0.50925939  0.42942687     1.02100
O3051       O  0.58510003  0.53132692  0.41382152    -0.78300
O3052       O  0.59814871  0.57484897  0.36903248    -0.78500
C3053       C  0.58722905  0.56156852  0.34564811     1.02100
Cr3054     Cr  0.64540305  0.54584671  0.33990260     1.93700
Cr3055     Cr  0.63813480  0.50341616  0.39192937     1.93200
Cr3056     Cr  0.62946530  0.56980640  0.39606404     1.39100
O3057       O  0.63746485  0.54003569  0.37598058    -1.23600
C3058       C  0.87369768  0.88504393  0.33172591     0.79700
N3059       N  0.87794777  0.91449175  0.34533426    -0.78600
C3060       C  0.87654722  0.94088150  0.33127734     0.82200
N3061       N  0.86933269  0.93693267  0.30411937    -0.78500
C3062       C  0.86387435  0.90716542  0.29082645     0.82300
N3063       N  0.86650408  0.88165139  0.30468560    -0.80200
C3064       C  0.67768480  0.89989624  0.16350973     0.79700
N3065       N  0.68154705  0.90537560  0.13619107    -0.78600
C3066       C  0.71103479  0.90985174  0.12254667     0.82200
N3067       N  0.73684924  0.90783003  0.13650948    -0.78500
C3068       C  0.73312278  0.90148781  0.16403630     0.82300
N3069       N  0.70373786  0.89836500  0.17767069    -0.80200
C3070       C  0.54616962  0.77222448  0.16553475     0.79700
N3071       N  0.54962136  0.74623626  0.17822310    -0.78600
C3072       C  0.54810562  0.71868752  0.16330874     0.82200
N3073       N  0.04482272  0.71847186  0.13490632    -0.78500
C3074       C  0.04056489  0.74365959  0.12217243     0.82300
N3075       N  0.04188572  0.77085242  0.13724273    -0.80200
C3076       C  0.64377812  0.82659612  0.36482000     0.02600
C3077       C  0.61495200  0.79190535  0.36971287    -0.13500
C3078       C  0.62097665  0.76332041  0.36538414     0.00100
C3079       C  0.65578386  0.76961476  0.36983334    -0.12000
C3080       C  0.68462630  0.80418587  0.36507062     0.02600
C3081       C  0.67842289  0.83280195  0.36918102    -0.11400
H3082       H  0.58808802  0.78663384  0.36608647     0.08200
H3083       H  0.66117086  0.74810305  0.36628454     0.05800
H3084       H  0.70010963  0.85959949  0.36493335     0.05600
O3085       O  0.52608985  0.88055593  0.17821763    -0.85800
O3086       O  0.59529139  0.93401175  0.17168368    -0.82900
C3087       C  0.60285853  0.95660325  0.19065280     0.97600
O3088       O  0.60735363  0.94939500  0.21455380    -0.82900
O3089       O  0.58492247  0.90909027  0.26023602    -0.85600
C3090       C  0.55181049  0.89422821  0.26614212     1.02200
O3091       O  0.52851629  0.87006332  0.25102731    -0.78300
O3092       O  0.00191472  0.83084768  0.20255159    -0.78500
C3093       C  0.99878779  0.85453455  0.19012970     1.02100
O3094       O  0.54679846  0.82723139  0.16710654    -0.85800
O3095       O  0.61636979  0.88013321  0.16562971    -0.82900
C3096       C  0.64615021  0.89810241  0.17698519     0.97700
O3097       O  0.64946516  0.91619949  0.19826578    -0.82900
O3098       O  0.62394455  0.87492113  0.24346560    -0.85500
C3099       C  0.60308717  0.85449288  0.26174783     1.02100
O3100       O  0.56985615  0.83930640  0.25862547    -0.78300
O3101       O  0.55154219  0.80605605  0.20646269    -0.78500
C3102       C  0.54848455  0.80329938  0.18067753     1.02100
Cr3103     Cr  0.57155715  0.88031489  0.17362820     1.93700
Cr3104     Cr  0.61338151  0.90987430  0.22734754     1.93200
Cr3105     Cr  0.54071113  0.83947756  0.22772250     1.39100
O3106       O  0.57536010  0.87699210  0.20965737    -1.23600
O3107       O  0.56811146  0.58696675  0.17910212    -0.85800
O3108       O  0.51500888  0.60293157  0.17189386    -0.82900
C3109       C  0.99121852  0.59019171  0.19035065     0.97600
O3110       O  0.99767635  0.60300702  0.21405000    -0.82900
O3111       O  0.53661500  0.61879762  0.26011353    -0.85600
C3112       C  0.55059202  0.60004055  0.26563953     1.02200
O3113       O  0.57487541  0.60032376  0.25040178    -0.78300
O3114       O  0.61682366  0.61236473  0.20262898    -0.78500
C3115       C  0.59429413  0.58594796  0.18896427     1.02100
O3116       O  0.62172349  0.66136849  0.16818684    -0.85800
O3117       O  0.56828310  0.67730671  0.16521536    -0.82900
C3118       C  0.55014970  0.68943544  0.17660916     0.97700
O3119       O  0.53271308  0.67614912  0.19862773    -0.82900
O3120       O  0.57274071  0.69220358  0.24409072    -0.85500
C3121       C  0.59198598  0.69137726  0.26257619     1.02100
O3122       O  0.60631099  0.67256544  0.25945967    -0.78300
O3123       O  0.64172284  0.68766064  0.20776125    -0.78500
C3124       C  0.64514010  0.68720989  0.18199448     1.02100
Cr3125     Cr  0.56842452  0.63276267  0.17405646     1.93700
Cr3126     Cr  0.53751916  0.64662737  0.22757949     1.93200
Cr3127     Cr  0.60719249  0.64332475  0.22817155     1.39100
O3128       O  0.57058453  0.64075238  0.20994878    -1.23600
O3129       O  0.86215639  0.92323262  0.17776302    -0.85800
O3130       O  0.84863912  0.85532665  0.17411683    -0.82900
C3131       C  0.86089420  0.84718968  0.19441740     0.97600
O3132       O  0.84509363  0.84073995  0.21717476    -0.82900
O3133       O  0.82560376  0.86452669  0.26027846    -0.85600
C3134       C  0.84571043  0.89756767  0.26455913     1.02200
O3135       O  0.84642064  0.92083653  0.24853659    -0.78300
O3136       O  0.83548288  0.94743816  0.19935036    -0.78500
C3137       C  0.86242012  0.95075749  0.18615806     1.02100
O3138       O  0.78739840  0.90012718  0.16514593    -0.85800
O3139       O  0.77346299  0.83185372  0.16465136    -0.82900
C3140       C  0.75983974  0.80247906  0.17710244     0.97700
O3141       O  0.77151541  0.79953499  0.19975772    -0.82900
O3142       O  0.75280825  0.82676306  0.24219836    -0.85500
C3143       C  0.75394070  0.84703649  0.26095898     1.02100
O3144       O  0.77343060  0.88016356  0.25778303    -0.78300
O3145       O  0.76053282  0.89722355  0.20472980    -0.78500
C3146       C  0.76156374  0.89926106  0.17882667     1.02100
Cr3147     Cr  0.81710081  0.87727580  0.17326137     1.93700
Cr3148     Cr  0.79930889  0.83574396  0.22802587     1.93200
Cr3149     Cr  0.80392965  0.90860069  0.22586817     1.39100
O3150       O  0.80696083  0.87362015  0.20898077    -1.23600
C3151       C  0.67636867  0.71584342  0.16695922     0.79700
N3152       N  0.70273054  0.74523478  0.17955923    -0.78600
C3153       C  0.73055071  0.77093764  0.16431476     0.82200
N3154       N  0.73220040  0.76689198  0.13685805    -0.78500
C3155       C  0.70652013  0.73740124  0.12438407     0.82300
N3156       N  0.67888020  0.71208764  0.13955856    -0.80200
C3157       C  0.89906435  0.60613883  0.00379892     0.79700
N3158       N  0.90309816  0.60451524  0.47655446    -0.78600
C3159       C  0.87877065  0.57586979  0.46239948     0.82200
N3160       N  0.85016452  0.54942876  0.47588395    -0.78500
C3161       C  0.84508514  0.55023917  0.00236144     0.82300
N3162       N  0.86961744  0.57911595  0.01698405    -0.80200
C3163       C  0.84131744  0.73493399  0.00092756     0.79700
N3164       N  0.84666548  0.74448210  0.47307579    -0.78600
C3165       C  0.87566972  0.74881792  0.45881411     0.82200
N3166       N  0.90051889  0.74404378  0.47167799    -0.78500
C3167       C  0.89556813  0.73383062  0.99953015     0.82300
N3168       N  0.86654613  0.73060102  0.01394681    -0.80200
C3169       C  0.80849981  0.65837311  0.19735478     0.02600
C3170       C  0.79487645  0.62167324  0.19558161    -0.13500
C3171       C  0.81823099  0.61001594  0.18727400     0.00100
C3172       C  0.85495161  0.63212402  0.19111790    -0.12000
C3173       C  0.86939927  0.66857092  0.19799255     0.02600
C3174       C  0.84469079  0.67993502  0.20467414    -0.11400
H3175       H  0.76692968  0.60473570  0.19059270     0.08200
H3176       H  0.87194037  0.62231612  0.18321294     0.05800
H3177       H  0.85401858  0.70760852  0.20881032     0.05600
O3178       O  0.51767667  0.76906591  0.00700475    -0.85800
O3179       O  0.52868328  0.71395913  0.01184920    -0.82900
C3180       C  0.52820509  0.68653540  0.02032618     0.97600
O3181       O  0.50120168  0.66421244  0.03367438    -0.82900
O3182       O  0.51840322  0.70850129  0.08157346    -0.85600
C3183       C  0.52040503  0.73383579  0.09646296     1.02200
O3184       O  0.50253550  0.74908959  0.09146648    -0.78300
O3185       O  0.50583204  0.78669778  0.04569561    -0.78500
C3186       C  0.52374134  0.79349871  0.02373850     1.02100
O3187       O  0.94249723  0.72135469  0.49889052    -0.85800
O3188       O  0.95150193  0.66318306  0.50286583    -0.82900
C3189       C  0.92719928  0.63818767  0.01812837     0.97700
O3190       O  0.92861085  0.64072630  0.04415063    -0.82900
O3191       O  0.95187648  0.67561453  0.09704933    -0.85500
C3192       C  0.93788793  0.69323559  0.10471325     1.02100
O3193       O  0.93006685  0.70860509  0.08684583    -0.78300
O3194       O  0.93030829  0.73941350  0.03828069    -0.78500
C3195       C  0.92440720  0.73121498  0.01327271     1.02100
Cr3196     Cr  0.48415233  0.71671858  0.00824766     1.93700
Cr3197     Cr  0.97495311  0.67534409  0.06196883     1.93200
Cr3198     Cr  0.96860458  0.74351971  0.06280370     1.39100
O3199       O  0.97603147  0.71202199  0.04435496    -1.23600
O3200       O  0.73246458  0.91859951  0.00967496    -0.85800
O3201       O  0.68079279  0.93653903  0.00516349    -0.82900
C3202       C  0.65761167  0.92503764  0.02444226     0.97600
O3203       O  0.66620035  0.93667455  0.04827167    -0.82900
O3204       O  0.70704684  0.94882567  0.09229579    -0.85600
C3205       C  0.71932532  0.92801170  0.09599749     1.02200
O3206       O  0.74169635  0.92707225  0.07934654    -0.78300
O3207       O  0.78262244  0.94151868  0.03079089    -0.78500
C3208       C  0.75764208  0.91532941  0.01866545     1.02100
O3209       O  0.78884491  0.99526774  0.49886551    -0.85800
O3210       O  0.73453002  0.00961320  0.49749276    -0.82900
C3211       C  0.71816915  0.02266210  0.01037026     0.97700
O3212       O  0.70392036  0.01133522  0.03379471    -0.82900
O3213       O  0.74198530  0.51991168  0.07821188    -0.85500
C3214       C  0.76275713  0.51807374  0.09482717     1.02100
O3215       O  0.77394369  0.49675111  0.09116326    -0.78300
O3216       O  0.80961177  0.01658817  0.04056237    -0.78500
C3217       C  0.81235941  0.01922595  0.01483648     1.02100
Cr3218     Cr  0.73487179  0.96532382  0.00602371     1.93700
Cr3219     Cr  0.70820956  0.97948899  0.06138963     1.93200
Cr3220     Cr  0.77474303  0.97109602  0.05879296     1.39100
O3221       O  0.73877975  0.97199161  0.04200954    -1.23600
O3222       O  0.67831913  0.68378986  0.00470449    -0.85800
O3223       O  0.73052435  0.75241819  0.01071785    -0.82900
C3224       C  0.75628797  0.78044589  0.02013021     0.97600
O3225       O  0.77970189  0.77807942  0.03324394    -0.82900
O3226       O  0.73757608  0.75075571  0.08134956    -0.85600
C3227       C  0.71396828  0.72756559  0.09739419     1.02200
O3228       O  0.69992571  0.69449212  0.09282943    -0.78300
O3229       O  0.66072705  0.66887817  0.04730337    -0.78500
C3230       C  0.65471919  0.67446990  0.02334833     1.02100
O3231       O  0.73054629  0.66200158  0.99899070    -0.85800
O3232       O  0.78494919  0.73153160  0.00061727    -0.82900
C3233       C  0.80898045  0.73137138  0.01508287     0.97700
O3234       O  0.80553611  0.72941888  0.04085119    -0.82900
O3235       O  0.77091654  0.71283013  0.09159304    -0.85500
C3236       C  0.75852437  0.68050094  0.09658277     1.02100
O3237       O  0.73617919  0.65687330  0.08099036    -0.78300
O3238       O  0.69696864  0.62945120  0.03387494    -0.78500
C3239       C  0.71254999  0.63234322  0.01101652     1.02100
Cr3240     Cr  0.73145132  0.70718709  0.00679537     1.93700
Cr3241     Cr  0.77040048  0.73963015  0.05997314     1.93200
Cr3242     Cr  0.70116283  0.66549411  0.06170835     1.39100
O3243       O  0.73405329  0.70346556  0.04286226    -1.23600
C3244       C  0.71041806  0.54705305  0.99731187     0.79700
N3245       N  0.70489121  0.54407832  0.46938872    -0.78600
C3246       C  0.69968826  0.56820110  0.45590983     0.82200
N3247       N  0.70353489  0.59730214  0.46951204    -0.78500
C3248       C  0.70871972  0.60040106  0.99727791     0.82300
N3249       N  0.71282566  0.57559400  0.01103645    -0.80200
C3250       C  0.75777149  0.88102136  0.01583186    -0.00600
C3251       C  0.78930959  0.88057618  0.02149904    -0.12500
C3252       C  0.78998183  0.84858983  0.02202134     0.01600
C3253       C  0.75852018  0.81569830  0.01668006    -0.00700
C3254       C  0.72741539  0.81628622  0.00991426    -0.12400
C3255       C  0.72663178  0.84819770  0.00961239     0.01500
H3256       H  0.81356829  0.90532844  0.02610535     0.14500
H3257       H  0.70296127  0.79142176  0.00592157     0.14500
C3258       C  0.69272572  0.84565266  0.00429681     0.36100
C3259       C  0.82336838  0.85055457  0.02844170     0.36000
N3260       N  0.66528300  0.84304581  0.00009622    -0.44200
N3261       N  0.85000261  0.85197708  0.03375564    -0.44200
C3262       C  0.55899234  0.68033499  0.01616947    -0.00600
C3263       C  0.55802935  0.65159161  0.03017575    -0.12500
C3264       C  0.58807252  0.64749218  0.03101253     0.01600
C3265       C  0.62020515  0.67246049  0.01768738    -0.00700
C3266       C  0.62031091  0.69908352  0.00146190    -0.12400
C3267       C  0.59011692  0.70315364  0.00049162     0.01500
H3268       H  0.53411156  0.63282512  0.04152651     0.14500
H3269       H  0.64470002  0.71804059  0.99067490     0.14500
C3270       C  0.59231358  0.73123261  0.98351566     0.36100
C3271       C  0.58520250  0.61751120  0.04587396     0.36000
N3272       N  0.59576594  0.75299568  0.47043230    -0.44200
N3273       N  0.58263702  0.59334874  0.05773535    -0.44200
C3274       C  0.55396787  0.83070606  0.01906092    -0.00600
C3275       C  0.56058158  0.85605321  0.03955770    -0.12500
C3276       C  0.59268899  0.88853727  0.04009054     0.01600
C3277       C  0.61990228  0.89614152  0.02011997    -0.00700
C3278       C  0.61133544  0.87327369  0.99748898    -0.12400
C3279       C  0.57847843  0.84097133  0.99659044     0.01500
H3280       H  0.54123540  0.84997912  0.05610947     0.14500
H3281       H  0.63092674  0.87972173  0.98108271     0.14500
C3282       C  0.57084622  0.81922031  0.97241160     0.36100
C3283       C  0.59688019  0.91304394  0.06186134     0.36000
N3284       N  0.56671175  0.79857063  0.45243845    -0.44200
N3285       N  0.59999789  0.93253771  0.07930928    -0.44200
C3286       C  0.79496554  0.67157186  0.17503732    -0.00600
C3287       C  0.81884427  0.68947486  0.15315187    -0.12500
C3288       C  0.80707094  0.69028279  0.12715623     0.01600
C3289       C  0.77025680  0.67268882  0.12212087    -0.00700
C3290       C  0.74580703  0.65727817  0.14419047    -0.12400
C3291       C  0.75798906  0.65717843  0.17066812     0.01500
H3292       H  0.84694638  0.70028169  0.15540042     0.14500
H3293       H  0.71748602  0.64665127  0.14096866     0.14500
C3294       C  0.73250095  0.64259996  0.19316465     0.36100
C3295       C  0.83357767  0.70910275  0.10571819     0.36000
N3296       N  0.71238900  0.63138018  0.21143445    -0.44200
N3297       N  0.85485398  0.72413002  0.08865680    -0.44200
C3298       C  0.80625844  0.58436573  0.16432259    -0.00600
C3299       C  0.77549549  0.55075237  0.16768370    -0.12500
C3300       C  0.75914108  0.52940430  0.14485217     0.01600
C3301       C  0.77509933  0.54076569  0.11868128    -0.00700
C3302       C  0.80584162  0.57342077  0.11533768    -0.12400
C3303       C  0.82023428  0.59595600  0.13744471     0.01500
H3304       H  0.76291497  0.54241727  0.18778185     0.14500
H3305       H  0.81733726  0.58224600  0.09492881     0.14500
C3306       C  0.84421493  0.63229272  0.13021381     0.36100
C3307       C  0.72379120  0.00097867  0.14734550     0.36000
N3308       N  0.86119486  0.66071373  0.12154524    -0.44200
N3309       N  0.69484144  0.97727677  0.14947364    -0.44200
C3310       C  0.93418285  0.69831826  0.13461022    -0.00600
C3311       C  0.92473249  0.72345388  0.14316929    -0.12500
C3312       C  0.91278948  0.72282705  0.17012135     0.01600
C3313       C  0.90701916  0.69449973  0.18768913    -0.00700
C3314       C  0.92929845  0.68011577  0.18234286    -0.12400
C3315       C  0.94072261  0.67958628  0.15531772     0.01500
H3316       H  0.92441942  0.74194811  0.12854357     0.14500
H3317       H  0.93041825  0.66239398  0.19729199     0.14500
C3318       C  0.95614850  0.65744110  0.14949672     0.36100
C3319       C  0.90351832  0.74924324  0.17783262     0.36000
N3320       N  0.96848844  0.63963264  0.14497520    -0.44200
N3321       N  0.89509117  0.76995343  0.18330062    -0.44200
C3322       C  0.89410266  0.98704209  0.18137418    -0.00600
C3323       C  0.89368481  0.51786487  0.19854627    -0.12500
C3324       C  0.92451449  0.55164466  0.19930933     0.01600
C3325       C  0.95602675  0.55787849  0.18526268    -0.00700
C3326       C  0.95482732  0.53064973  0.16882453    -0.12400
C3327       C  0.92538658  0.99329488  0.16660437     0.01500
H3328       H  0.87023969  0.51344646  0.21029077     0.14500
H3329       H  0.97872789  0.53527240  0.15766266     0.14500
C3330       C  0.92787725  0.96519609  0.15255666     0.36100
C3331       C  0.92311371  0.57930997  0.21495911     0.36000
N3332       N  0.93022141  0.94289059  0.14127911    -0.44200
N3333       N  0.92185483  0.60137858  0.22751686    -0.44200
C3334       C  0.89512046  0.84655094  0.19243662    -0.00600
C3335       C  0.91644333  0.85850200  0.16836157    -0.12500
C3336       C  0.95032657  0.86135300  0.16684605     0.01600
C3337       C  0.96332433  0.85187016  0.18964702    -0.00700
C3338       C  0.94211750  0.83973797  0.21349078    -0.12400
C3339       C  0.90853338  0.83686357  0.21519408     0.01500
H3340       H  0.90692168  0.86613279  0.15077185     0.14500
H3341       H  0.95198746  0.83254320  0.23115282     0.14500
C3342       C  0.88881370  0.82336842  0.24074012     0.36100
C3343       C  0.97076701  0.87321102  0.14153142     0.36000
N3344       N  0.87327821  0.81252890  0.26126775    -0.44200
N3345       N  0.98709405  0.88263626  0.12119968    -0.44200
C3346       C  0.60512657  0.99164612  0.18560440    -0.00600
C3347       C  0.58072657  0.49398035  0.16835170    -0.12500
C3348       C  0.57755836  0.52478715  0.16807574     0.01600
C3349       C  0.59897880  0.55404373  0.18537908    -0.00700
C3350       C  0.62509548  0.55224504  0.20091162    -0.12400
C3351       C  0.62799476  0.02228617  0.20094217     0.01500
H3352       H  0.56354500  0.97051041  0.15564249     0.14500
H3353       H  0.64245641  0.57441018  0.21387948     0.14500
C3354       C  0.65509108  0.02325329  0.21831948     0.36100
C3355       C  0.55203721  0.52532592  0.14982446     0.36000
N3356       N  0.67684266  0.02413293  0.23224087    -0.44200
N3357       N  0.53175553  0.52564459  0.13492071    -0.44200
C3358       C  0.60173860  0.73887472  0.34199692    -0.00600
C3359       C  0.59514848  0.75372516  0.31864471    -0.12500
C3360       C  0.59159366  0.73878273  0.29269809     0.01600
C3361       C  0.59395777  0.70786669  0.28954695    -0.00700
C3362       C  0.59599514  0.69048328  0.31310483    -0.12400
C3363       C  0.59931051  0.70536136  0.33917659     0.01500
H3364       H  0.59573653  0.77884025  0.31985470     0.14500
H3365       H  0.59543949  0.66530247  0.31114308     0.14500
C3366       C  0.60159463  0.68645362  0.36251508     0.36100
C3367       C  0.58821397  0.75721237  0.26949219     0.36000
N3368       N  0.60353738  0.67126911  0.38114779    -0.44200
N3369       N  0.58550670  0.77185195  0.25082099    -0.44200
C3370       C  0.70922566  0.80869362  0.34140976    -0.00600
C3371       C  0.69409018  0.78681414  0.31818769    -0.12500
C3372       C  0.70819299  0.79846217  0.29191035     0.01600
C3373       C  0.73831725  0.83259901  0.28828272    -0.00700
C3374       C  0.75641125  0.85230347  0.31158467    -0.12400
C3375       C  0.74263868  0.84015019  0.33800422     0.01500
H3376       H  0.66921247  0.76178115  0.31986794     0.14500
H3377       H  0.78136355  0.87737158  0.30919852     0.14500
C3378       C  0.76252466  0.86082297  0.36126624     0.36100
C3379       C  0.68984308  0.77570369  0.26901289     0.36000
N3380       N  0.77860233  0.87725867  0.37991123    -0.44200
N3381       N  0.67538534  0.75750485  0.25060611    -0.44200
C3382       C  0.63942308  0.84534825  0.34087301    -0.00600
C3383       C  0.66052284  0.84989848  0.31702429    -0.12500
C3384       C  0.64931658  0.85286428  0.29113053     0.01600
C3385       C  0.61676822  0.85217878  0.28856228    -0.00700
C3386       C  0.59765651  0.85184223  0.31238635    -0.12400
C3387       C  0.60899649  0.84897638  0.33840776     0.01500
H3388       H  0.68445477  0.84814001  0.31798823     0.14500
H3389       H  0.57360221  0.85356192  0.31067487     0.14500
C3390       C  0.58860926  0.84889581  0.36220431     0.36100
C3391       C  0.67012425  0.85362943  0.26736775     0.36000
N3392       N  0.57238565  0.84904821  0.38128534    -0.44200
N3393       N  0.68629526  0.85410679  0.24805277    -0.44200
C3394       C  0.78217553  0.72520599  0.35591465    -0.00600
C3395       C  0.77807844  0.69898707  0.33689957    -0.12500
C3396       C  0.74618403  0.66578118  0.33595126     0.01600
C3397       C  0.71752590  0.65820261  0.35444042    -0.00700
C3398       C  0.72055827  0.68565350  0.37163329    -0.12400
C3399       C  0.75215239  0.71886498  0.37235922     0.01500
H3400       H  0.80059735  0.70355626  0.32384324     0.14500
H3401       H  0.69842144  0.68077562  0.38527658     0.14500
C3402       C  0.75287035  0.74576842  0.39037417     0.36100
C3403       C  0.74484039  0.63933689  0.31715774     0.36000
N3404       N  0.75310056  0.76717496  0.40477583    -0.44200
N3405       N  0.74402703  0.61838030  0.30195124    -0.44200
C3406       C  0.92649822  0.65615738  0.35294837    -0.00600
C3407       C  0.95296728  0.68601817  0.36689501    -0.12500
C3408       C  0.95346714  0.71857708  0.36735388     0.01600
C3409       C  0.92680430  0.72211619  0.35363110    -0.00700
C3410       C  0.90132838  0.69277165  0.33862201    -0.12400
C3411       C  0.90103639  0.66026638  0.33798435     0.01500
H3412       H  0.97303009  0.68378888  0.37826151     0.14500
H3413       H  0.88098387  0.69492790  0.32760623     0.14500
C3414       C  0.87393054  0.63171476  0.32192662     0.36100
C3415       C  0.98116812  0.74724205  0.38297054     0.36000
N3416       N  0.85223657  0.60891295  0.30898410    -0.44200
N3417       N  0.00343726  0.77004170  0.39554179    -0.44200
C3418       C  0.73025480  0.52467062  0.34939280    -0.00600
C3419       C  0.75880334  0.55150593  0.36392422    -0.12500
C3420       C  0.79094369  0.55148829  0.36619216     0.01600
C3421       C  0.79492119  0.52419413  0.35373156    -0.00700
C3422       C  0.76729086  0.49866743  0.33758335    -0.12400
C3423       C  0.73493566  0.49871309  0.33536016     0.01500
H3424       H  0.75551522  0.57186263  0.37436457     0.14500
H3425       H  0.76256961  0.96733249  0.33456226     0.14500
C3426       C  0.69843061  0.96095507  0.32808494     0.36100
C3427       C  0.81964222  0.57999377  0.38124882     0.36000
N3428       N  0.67369190  0.93698503  0.31849666    -0.47800
N3429       N  0.84267853  0.60302963  0.39309943    -0.44200
C3430       C  0.92598176  0.89891442  0.51178483    -0.00600
C3431       C  0.91092058  0.90833525  0.49031527    -0.12500
C3432       C  0.90927945  0.89549539  0.46383375     0.01600
C3433       C  0.92198518  0.87181523  0.45841795    -0.00700
C3434       C  0.93080970  0.85751585  0.48077711    -0.12400
C3435       C  0.93184043  0.87011237  0.50739651     0.01500
H3436       H  0.90395216  0.92878072  0.49310166     0.14500
H3437       H  0.93731649  0.83666925  0.47751135     0.14500
C3438       C  0.93886242  0.85279580  0.02974470     0.36100
C3439       C  0.89615644  0.90872658  0.44263350     0.36000
N3440       N  0.94339711  0.83883538  0.04802169    -0.44200
N3441       N  0.88536150  0.91919953  0.42577617    -0.44200
C3442       C  0.53007742  0.98139049  0.50560436    -0.00600
C3443       C  0.51225822  0.96660095  0.48082231    -0.12500
C3444       C  0.52992768  0.97739673  0.45555453     0.01600
C3445       C  0.56610997  0.49742209  0.45520184    -0.00700
C3446       C  0.58200126  0.51658183  0.47913873    -0.12400
C3447       C  0.56535686  0.50421386  0.50484969     0.01500
H3448       H  0.48385141  0.94769379  0.48103688     0.14500
H3449       H  0.60778262  0.54096294  0.47776114     0.14500
C3450       C  0.58345551  0.52377763  0.52900015     0.36100
C3451       C  0.51027354  0.96166212  0.43088388     0.36000
N3452       N  0.60107302  0.53299110  0.04865361    -0.44200
N3453       N  0.49457151  0.94912787  0.41109652    -0.44200
C3454       C  0.93439290  0.50557199  0.45465760    -0.00600
C3455       C  0.91038666  0.49807867  0.47681796    -0.12500
C3456       C  0.91704757  0.99551704  0.50339089     0.01600
C3457       C  0.95235174  0.00580594  0.51116671    -0.00700
C3458       C  0.98016733  0.02617104  0.49190231    -0.12400
C3459       C  0.96907102  0.51275745  0.45956147     0.01500
H3460       H  0.88448580  0.49547423  0.47329294     0.14500
H3461       H  0.00802219  0.03771963  0.49693562     0.14500
C3462       C  0.99513051  0.52258208  0.43748213     0.36100
C3463       C  0.88839403  0.98459704  0.52341395     0.36000
N3464       N  0.01557947  0.53039675  0.41952028    -0.44200
N3465       N  0.87302814  0.98433524  0.04348619    -0.44200
C3466       C  0.50982026  0.57163243  0.83178739     0.79700
N3467       N  0.51528560  0.58054881  0.80486394    -0.78600
C3468       C  0.54304587  0.58164853  0.79043227     0.82200
N3469       N  0.56556986  0.57344844  0.80313196    -0.78500
C3470       C  0.56073746  0.56463825  0.83015189     0.82300
N3471       N  0.53315065  0.56432125  0.84462933    -0.80200
C3472       C  0.56256351  0.93523991  0.83321708     0.79700
N3473       N  0.56752807  0.92997272  0.80647088    -0.78600
C3474       C  0.54263567  0.90091622  0.79283139     0.82200
N3475       N  0.51235363  0.87663331  0.80623607    -0.78500
C3476       C  0.50681565  0.88121818  0.83311786     0.82300
N3477       N  0.53219967  0.91048532  0.84671578    -0.80200
C3478       C  0.96165833  0.98718471  0.03395534     0.02600
C3479       C  0.93664706  0.95100111  0.03925401    -0.13500
C3480       C  0.94751651  0.92598377  0.03392495     0.00100
C3481       C  0.98407610  0.93739842  0.03694533    -0.12000
C3482       C  0.50944533  0.97275799  0.03248216     0.02600
C3483       C  0.99660720  0.49455529  0.03948182    -0.11400
H3484       H  0.90848992  0.94153180  0.03678368     0.08200
H3485       H  0.49373540  0.91808948  0.03331762     0.05800
H3486       H  0.51719389  0.52150743  0.03515234     0.05600
O3487       O  0.84795659  0.52117724  0.84058084    -0.85800
O3488       O  0.89978732  0.59109142  0.84582697    -0.82900
C3489       C  0.92510143  0.61934209  0.85537669     0.97600
O3490       O  0.94923489  0.61786296  0.86850675    -0.82900
O3491       O  0.91237819  0.59055810  0.91885351    -0.85600
C3492       C  0.88880700  0.56689300  0.93466447     1.02200
O3493       O  0.87417955  0.53416539  0.92894827    -0.78300
O3494       O  0.83398712  0.51402963  0.88418449    -0.78500
C3495       C  0.82666365  0.51723651  0.86005578     1.02100
O3496       O  0.90252299  0.50254710  0.83412597    -0.85800
O3497       O  0.95502598  0.57269787  0.83362611    -0.82900
C3498       C  0.97909313  0.57120151  0.84697901     0.97700
O3499       O  0.97670691  0.56908202  0.87275471    -0.82900
O3500       O  0.94517670  0.55055997  0.92429288    -0.85500
C3501       C  0.93060173  0.51777399  0.92902633     1.02100
O3502       O  0.90723523  0.49521486  0.91333816    -0.78300
O3503       O  0.86271624  0.96952973  0.86721689    -0.78500
C3504       C  0.88052837  0.97191876  0.84561503     1.02100
Cr3505     Cr  0.90176041  0.54674333  0.84154753     1.93700
Cr3506     Cr  0.94303846  0.57921645  0.89429018     1.93200
Cr3507     Cr  0.87263029  0.50621109  0.89643682     1.39100
O3508       O  0.90568344  0.54370160  0.87759067    -1.23600
O3509       O  0.89750336  0.75375119  0.84586143    -0.85800
O3510       O  0.84284894  0.76726093  0.84046417    -0.82900
C3511       C  0.81967926  0.75395640  0.85961441     0.97600
O3512       O  0.82685990  0.76674531  0.88332298    -0.82900
O3513       O  0.86819769  0.78370830  0.92798360    -0.85600
C3514       C  0.88309483  0.76554033  0.93284171     1.02200
O3515       O  0.90707984  0.76648415  0.91687042    -0.78300
O3516       O  0.94720534  0.77999196  0.86793653    -0.78500
C3517       C  0.92391171  0.75297125  0.85546755     1.02100
O3518       O  0.94985743  0.82892255  0.83410729    -0.85800
O3519       O  0.89443676  0.84266337  0.83307584    -0.82900
C3520       C  0.87695459  0.85498123  0.84535263     0.97700
O3521       O  0.86118378  0.84207376  0.86805021    -0.82900
O3522       O  0.90325583  0.85739099  0.91214319    -0.85500
C3523       C  0.92277965  0.85649462  0.93033261     1.02100
O3524       O  0.93766849  0.83836443  0.92643845    -0.78300
O3525       O  0.97096150  0.85424384  0.87389569    -0.78500
C3526       C  0.97417530  0.85389839  0.84810792     1.02100
Cr3527     Cr  0.89649930  0.79882847  0.84131542     1.93700
Cr3528     Cr  0.86742660  0.81196902  0.89605730     1.93200
Cr3529     Cr  0.93775749  0.80983151  0.89442694     1.39100
O3530       O  0.90009068  0.80673715  0.87725501    -1.23600
O3531       O  0.67535657  0.59592825  0.83893202    -0.85800
O3532       O  0.69211393  0.54441704  0.84412119    -0.82900
C3533       C  0.69459687  0.51886802  0.85329427     0.97600
O3534       O  0.66829166  0.49406280  0.86591167    -0.82900
O3535       O  0.67964177  0.53407397  0.91467998    -0.85600
C3536       C  0.67852229  0.55683351  0.93061320     1.02200
O3537       O  0.65770341  0.56881969  0.92643401    -0.78300
O3538       O  0.67344862  0.61040746  0.88171450    -0.78500
C3539       C  0.68747016  0.61839729  0.85810851     1.02100
O3540       O  0.60102908  0.54292283  0.83149917    -0.85800
O3541       O  0.61708629  0.48930072  0.83307310    -0.82900
C3542       C  0.59086833  0.96736861  0.84707238     0.97700
O3543       O  0.59151119  0.96923658  0.87290656    -0.82900
O3544       O  0.60702305  0.49829452  0.92507973    -0.85500
C3545       C  0.58529523  0.50899786  0.92884830     1.02100
O3546       O  0.58387554  0.53009566  0.91211603    -0.78300
O3547       O  0.59860367  0.57314992  0.86711494    -0.78500
C3548       C  0.58780301  0.55940863  0.84386296     1.02100
Cr3549     Cr  0.64559166  0.54250884  0.83986190     1.93700
Cr3550     Cr  0.63684421  0.50122703  0.89294188     1.93200
Cr3551     Cr  0.62898137  0.56809086  0.89494604     1.39100
O3552       O  0.63698899  0.53763582  0.87587873    -1.23600
C3553       C  0.87371650  0.88381121  0.83193188     0.79700
N3554       N  0.87786319  0.91315722  0.84578881    -0.78600
C3555       C  0.87594364  0.93950350  0.83197747     0.82200
N3556       N  0.86847277  0.93565717  0.80490230    -0.78500
C3557       C  0.86307032  0.90609977  0.79138734     0.82300
N3558       N  0.86604392  0.88055781  0.80495620    -0.80200
C3559       C  0.67746324  0.89898823  0.66247692     0.79700
N3560       N  0.68148343  0.90422017  0.63511902    -0.78600
C3561       C  0.71123287  0.90893172  0.62168341     0.82200
N3562       N  0.73713158  0.90742088  0.63598579    -0.78500
C3563       C  0.73315927  0.90128086  0.66357932     0.82300
N3564       N  0.70353642  0.89790794  0.67689643    -0.80200
C3565       C  0.54717991  0.77201916  0.66441425     0.79700
N3566       N  0.55083993  0.74608857  0.67698104    -0.78600
C3567       C  0.54985964  0.71888826  0.66193358     0.82200
N3568       N  0.04531552  0.71870034  0.63430695    -0.78500
C3569       C  0.04082322  0.74388118  0.62171795     0.82300
N3570       N  0.04207735  0.77093502  0.63685987    -0.80200
C3571       C  0.64258221  0.82414289  0.86431173     0.02600
C3572       C  0.61386240  0.78919076  0.86863624    -0.13500
C3573       C  0.62036376  0.76095203  0.86430666     0.00100
C3574       C  0.65507258  0.76741260  0.86933531    -0.12000
C3575       C  0.68379885  0.80214696  0.86486928     0.02600
C3576       C  0.67720033  0.83049599  0.86911105    -0.11400
H3577       H  0.58700311  0.78348005  0.86444166     0.08200
H3578       H  0.66060017  0.74597425  0.86578852     0.05800
H3579       H  0.69887805  0.85748268  0.86555377     0.05600
O3580       O  0.52626691  0.88003155  0.67882132    -0.85800
O3581       O  0.59508011  0.93318719  0.67171316    -0.82900
C3582       C  0.60250028  0.95544941  0.69090071     0.97600
O3583       O  0.60743585  0.94811555  0.71462318    -0.82900
O3584       O  0.58556878  0.90743358  0.76006196    -0.85600
C3585       C  0.55245501  0.89243626  0.76600819     1.02200
O3586       O  0.52915517  0.86841869  0.75084023    -0.78300
O3587       O  0.00219515  0.83205137  0.70212069    -0.78500
C3588       C  0.99983763  0.85613665  0.68956776     1.02100
O3589       O  0.54659656  0.82646110  0.66651640    -0.85800
O3590       O  0.61613448  0.87944001  0.66461800    -0.82900
C3591       C  0.64597699  0.89728830  0.67591358     0.97700
O3592       O  0.64944576  0.91514821  0.69737633    -0.82900
O3593       O  0.62467193  0.87363947  0.74257625    -0.85500
C3594       C  0.60394067  0.85318530  0.76090497     1.02100
O3595       O  0.57069267  0.83768311  0.75769307    -0.78300
O3596       O  0.55200885  0.80508441  0.70553504    -0.78500
C3597       C  0.54885364  0.80262641  0.67977621     1.02100
Cr3598     Cr  0.57143612  0.87953202  0.67332852     1.93700
Cr3599     Cr  0.61378713  0.90859781  0.72687460     1.93200
Cr3600     Cr  0.54119903  0.83812552  0.72719964     1.39100
O3601       O  0.57568367  0.87582277  0.70922674    -1.23600
O3602       O  0.57014811  0.58708032  0.67726521    -0.85800
O3603       O  0.51665608  0.60214495  0.67124982    -0.82900
C3604       C  0.99347954  0.59028459  0.69036362     0.97600
O3605       O  0.00046923  0.60370501  0.71386167    -0.82900
O3606       O  0.53999729  0.61973401  0.75875446    -0.85600
C3607       C  0.55322679  0.60020942  0.76390480     1.02200
O3608       O  0.57730796  0.60024043  0.74848647    -0.78300
O3609       O  0.61918694  0.61268050  0.70026645    -0.78500
C3610       C  0.59627978  0.58602699  0.68709514     1.02100
O3611       O  0.62348230  0.66206025  0.66590739    -0.85800
O3612       O  0.56932459  0.67688495  0.66335018    -0.82900
C3613       C  0.55200697  0.68963502  0.67514832     0.97700
O3614       O  0.53555065  0.67708126  0.69760090    -0.82900
O3615       O  0.57702005  0.69313242  0.74201924    -0.85500
C3616       C  0.59580649  0.69179171  0.76062259     1.02100
O3617       O  0.60947886  0.67241688  0.75766035    -0.78300
O3618       O  0.64415560  0.68768506  0.70565561    -0.78500
C3619       C  0.64710540  0.68774117  0.67980555     1.02100
Cr3620     Cr  0.57014018  0.63270840  0.67236407     1.93700
Cr3621     Cr  0.54071770  0.64758625  0.72628847     1.93200
Cr3622     Cr  0.60978041  0.64332685  0.72613935     1.39100
O3623       O  0.57305044  0.64100749  0.70823452    -1.23600
O3624       O  0.86239304  0.92546741  0.67923806    -0.85800
O3625       O  0.85085177  0.85870062  0.67446124    -0.82900
C3626       C  0.86245618  0.84970259  0.69463605     0.97600
O3627       O  0.84523018  0.84089085  0.71684982    -0.82900
O3628       O  0.82536019  0.86402124  0.76025865    -0.85600
C3629       C  0.84495228  0.89698676  0.76508153     1.02200
O3630       O  0.84527574  0.92055782  0.74956548    -0.78300
O3631       O  0.83457217  0.94845535  0.70077111    -0.78500
C3632       C  0.86190571  0.95253293  0.68781399     1.02100
O3633       O  0.78787815  0.90114479  0.66543124    -0.85800
O3634       O  0.77554807  0.83337115  0.66376830    -0.82900
C3635       C  0.76117444  0.80377568  0.67600405     0.97700
O3636       O  0.77166217  0.80038116  0.69904876    -0.82900
O3637       O  0.75268731  0.82643588  0.74206269    -0.85500
C3638       C  0.75350836  0.84636625  0.76099694     1.02100
O3639       O  0.77255127  0.87950950  0.75801609    -0.78300
O3640       O  0.76000589  0.89714229  0.70476401    -0.78500
C3641       C  0.76156148  0.89955153  0.67883002     1.02100
Cr3642     Cr  0.81821008  0.87916459  0.67361131     1.93700
Cr3643     Cr  0.79931119  0.83587940  0.72772381     1.93200
Cr3644     Cr  0.80310807  0.90855701  0.72647950     1.39100
O3645       O  0.80701967  0.87423520  0.70919965    -1.23600
C3646       C  0.67811660  0.71698084  0.66486504     0.79700
N3647       N  0.70436052  0.74619705  0.67772764    -0.78600
C3648       C  0.73206458  0.77245527  0.66273229     0.82200
N3649       N  0.73378390  0.76908684  0.63517780    -0.78500
C3650       C  0.70819203  0.73979994  0.62238987     0.82300
N3651       N  0.68063270  0.71399583  0.63737483    -0.80200
C3652       C  0.89884528  0.60710558  0.50405146     0.79700
N3653       N  0.90393580  0.60350858  0.97636989    -0.78600
C3654       C  0.87982507  0.57494369  0.96197647     0.82200
N3655       N  0.85072284  0.54865134  0.97518528    -0.78500
C3656       C  0.84522051  0.55098532  0.50313491     0.82300
N3657       N  0.86987898  0.57998208  0.51754823    -0.80200
C3658       C  0.84193986  0.73576604  0.49991454     0.79700
N3659       N  0.84607248  0.74362462  0.97399537    -0.78600
C3660       C  0.87489010  0.74742829  0.95956905     0.82200
N3661       N  0.89956432  0.74237414  0.97239370    -0.78500
C3662       C  0.89634869  0.73527541  0.49879425     0.82300
N3663       N  0.86720075  0.73173556  0.51309087    -0.80200
C3664       C  0.80827322  0.66235709  0.69750702     0.02600
C3665       C  0.79307736  0.62535501  0.69560615    -0.13500
C3666       C  0.81521946  0.61186289  0.68872159     0.00100
C3667       C  0.85169860  0.63200704  0.69367655    -0.12000
C3668       C  0.86795329  0.66893433  0.69917254     0.02600
C3669       C  0.84472343  0.68249015  0.70476048    -0.11400
H3670       H  0.76535674  0.60900645  0.69001518     0.08200
H3671       H  0.86738704  0.62019870  0.68696225     0.05800
H3672       H  0.85550913  0.71047103  0.70859648     0.05600
O3673       O  0.51778871  0.76743363  0.50602375    -0.85800
O3674       O  0.52869735  0.71261133  0.51165590    -0.82900
C3675       C  0.52842326  0.68550794  0.52062334     0.97600
O3676       O  0.50111019  0.66303229  0.53356832    -0.82900
O3677       O  0.51978518  0.70856224  0.58064273    -0.85600
C3678       C  0.52209947  0.73417905  0.59531113     1.02200
O3679       O  0.50411452  0.74935721  0.59040292    -0.78300
O3680       O  0.50601519  0.78592158  0.54431624    -0.78500
C3681       C  0.52384420  0.79222114  0.52234981     1.02100
O3682       O  0.94344702  0.72203594  0.99928899    -0.85800
O3683       O  0.95117213  0.66282771  0.00300236    -0.82900
C3684       C  0.92717987  0.63911437  0.51809465     0.97700
O3685       O  0.92846828  0.64219315  0.54403441    -0.82900
O3686       O  0.95165427  0.67726981  0.59630151    -0.85500
C3687       C  0.93699518  0.69420380  0.60421494     1.02100
O3688       O  0.93057850  0.71130343  0.58681068    -0.78300
O3689       O  0.93203510  0.74224767  0.53730399    -0.78500
C3690       C  0.92492350  0.73244700  0.51261388     1.02100
Cr3691     Cr  0.48411782  0.71528365  0.50797291     1.93700
Cr3692     Cr  0.97496384  0.67660200  0.56152721     1.93200
Cr3693     Cr  0.96972910  0.74537001  0.56223063     1.39100
O3694       O  0.97620336  0.71323112  0.54382345    -1.23600
O3695       O  0.73346919  0.91898781  0.50779762    -0.85800
O3696       O  0.68089203  0.93575875  0.50377899    -0.82900
C3697       C  0.65764784  0.92343787  0.52299455     0.97600
O3698       O  0.66595172  0.93450439  0.54697563    -0.82900
O3699       O  0.70658164  0.94724920  0.59118265    -0.85600
C3700       C  0.71952048  0.92703795  0.59500626     1.02200
O3701       O  0.74223757  0.92664884  0.57835870    -0.78300
O3702       O  0.78331485  0.94237733  0.52941543    -0.78500
C3703       C  0.75920297  0.91645309  0.51644608     1.02100
O3704       O  0.78881641  0.99453440  0.99991796    -0.85800
O3705       O  0.73517024  0.00999926  0.99808498    -0.82900
C3706       C  0.71688335  0.02150924  0.50979531     0.97700
O3707       O  0.70218192  0.00940112  0.53298300    -0.82900
O3708       O  0.74452199  0.52365373  0.57759456    -0.85500
C3709       C  0.76471276  0.52201227  0.59483463     1.02100
O3710       O  0.77507090  0.49986869  0.59226073    -0.78300
O3711       O  0.80918473  0.01691779  0.53968017    -0.78500
C3712       C  0.81224360  0.01979356  0.51396973     1.02100
Cr3713     Cr  0.73491955  0.96526067  0.50486282     1.93700
Cr3714     Cr  0.70716976  0.97773911  0.56039973     1.93200
Cr3715     Cr  0.77470172  0.97105861  0.55772432     1.39100
O3716       O  0.73844268  0.97133355  0.54095653    -1.23600
O3717       O  0.67950123  0.68600131  0.50497623    -0.85800
O3718       O  0.73206517  0.75429140  0.50932910    -0.82900
C3719       C  0.75851705  0.78236877  0.51787935     0.97600
O3720       O  0.78198777  0.77972248  0.53046272    -0.82900
O3721       O  0.73908096  0.75347472  0.57905706    -0.85600
C3722       C  0.71605404  0.73015255  0.59545767     1.02200
O3723       O  0.70319226  0.69704583  0.59151706    -0.78300
O3724       O  0.66285781  0.66756860  0.54718713    -0.78500
C3725       C  0.65617809  0.67467823  0.52393280     1.02100
O3726       O  0.73065601  0.66316256  0.49741246    -0.85800
O3727       O  0.78570720  0.73202720  0.49917535    -0.82900
C3728       C  0.80991906  0.73246386  0.51384834     0.97700
O3729       O  0.80716457  0.73172725  0.53963345    -0.82900
O3730       O  0.77397124  0.71805369  0.59058145    -0.85500
C3731       C  0.76361584  0.68634659  0.59604774     1.02100
O3732       O  0.74236286  0.66177847  0.58050062    -0.78300
O3733       O  0.70235015  0.63126902  0.53412846    -0.78500
C3734       C  0.71543186  0.63396089  0.51027401     1.02100
Cr3735     Cr  0.73245427  0.70866218  0.50571385     1.93700
Cr3736     Cr  0.77244718  0.74253029  0.55815832     1.93200
Cr3737     Cr  0.70523352  0.66741154  0.56124390     1.39100
O3738       O  0.73627553  0.70549479  0.54168306    -1.23600
C3739       C  0.71302656  0.54855971  0.49640216     0.79700
N3740       N  0.70254555  0.54266047  0.97027557    -0.78600
C3741       C  0.69714485  0.56659187  0.95676372     0.82200
N3742       N  0.70053489  0.59551788  0.97035590    -0.78500
C3743       C  0.71191756  0.60221391  0.49638934     0.82300
N3744       N  0.71578000  0.57725479  0.51009836    -0.80200
C3745       C  0.76095274  0.88314740  0.51262453    -0.00600
C3746       C  0.78947815  0.88148748  0.52434611    -0.12500
C3747       C  0.79026092  0.84968827  0.52517495     0.01600
C3748       C  0.76177779  0.81799127  0.51404525    -0.00700
C3749       C  0.73444046  0.82012795  0.50068275    -0.12400
C3750       C  0.73380230  0.85212001  0.49975917     0.01500
H3751       H  0.81091043  0.90494148  0.53391377     0.14500
H3752       H  0.71274357  0.79640463  0.49156370     0.14500
C3753       C  0.70441323  0.85166678  0.48591458     0.36100
C3754       C  0.82023768  0.85067779  0.53858482     0.36000
N3755       N  0.68078485  0.85095013  0.47465472    -0.44200
N3756       N  0.84426443  0.85167278  0.54943269    -0.44200
C3757       C  0.55974251  0.67998505  0.51753914    -0.00600
C3758       C  0.55963508  0.65275187  0.53312621    -0.12500
C3759       C  0.58994866  0.64912685  0.53445654     0.01600
C3760       C  0.62131028  0.67257348  0.51946280    -0.00700
C3761       C  0.62065672  0.69802049  0.50227128    -0.12400
C3762       C  0.59057221  0.70218808  0.50138332     0.01500
H3763       H  0.53624065  0.63500224  0.54543637     0.14500
H3764       H  0.64456412  0.71626955  0.49063834     0.14500
C3765       C  0.59300415  0.73025117  0.48429580     0.36100
C3766       C  0.58819708  0.62164292  0.55197561     0.36000
N3767       N  0.59437933  0.75366145  0.96961395    -0.44200
N3768       N  0.58655115  0.59972623  0.56626710    -0.44200
C3769       C  0.55406279  0.82925540  0.51723353    -0.00600
C3770       C  0.56014336  0.85522296  0.53703408    -0.12500
C3771       C  0.59242127  0.88748840  0.53771033     0.01600
C3772       C  0.62014298  0.89442479  0.51840344    -0.00700
C3773       C  0.61227053  0.87083718  0.49633770    -0.12400
C3774       C  0.57932865  0.83865389  0.49535771     0.01500
H3775       H  0.54030194  0.84970941  0.55308532     0.14500
H3776       H  0.63241482  0.87667148  0.48050365     0.14500
C3777       C  0.57241637  0.81612783  0.47172649     0.36100
C3778       C  0.59639787  0.91228918  0.55917386     0.36000
N3779       N  0.56456639  0.80224410  0.95273863    -0.44200
N3780       N  0.59936181  0.93190952  0.57647185    -0.44200
C3781       C  0.79436373  0.67783109  0.67701552    -0.00600
C3782       C  0.81925843  0.70226102  0.65795679    -0.12500
C3783       C  0.80998671  0.70340366  0.63110060     0.01600
C3784       C  0.77464327  0.68034499  0.62265704    -0.00700
C3785       C  0.74834359  0.66011885  0.64252207    -0.12400
C3786       C  0.75781544  0.65992647  0.66981131     0.01500
H3787       H  0.84702382  0.71807278  0.66279994     0.14500
H3788       H  0.72036813  0.64580053  0.63700675     0.14500
C3789       C  0.72987103  0.64153081  0.69018563     0.36100
C3790       C  0.83789837  0.72770619  0.61230958     0.36000
N3791       N  0.70761707  0.62706759  0.70668206    -0.44200
N3792       N  0.86029179  0.74721636  0.59741047    -0.44200
C3793       C  0.80398236  0.58766463  0.66503042    -0.00600
C3794       C  0.77516374  0.55294083  0.66798338    -0.12500
C3795       C  0.76018575  0.53181847  0.64488232     0.01600
C3796       C  0.77572178  0.54471091  0.61878529    -0.00700
C3797       C  0.80396336  0.57922677  0.61570955    -0.12400
C3798       C  0.81697087  0.60126291  0.63831915     0.01500
H3799       H  0.76300410  0.54329436  0.68805205     0.14500
H3800       H  0.81479902  0.58942947  0.59539157     0.14500
C3801       C  0.83937802  0.63849163  0.63245552     0.36100
C3802       C  0.72192474  0.00023896  0.64631020     0.36000
N3803       N  0.85563002  0.66792056  0.62568410    -0.44200
N3804       N  0.69288392  0.97661908  0.64814544    -0.44200
C3805       C  0.93144681  0.69672267  0.63425799    -0.00600
C3806       C  0.92473154  0.72331725  0.64417553    -0.12500
C3807       C  0.91341507  0.72225114  0.67144092     0.01600
C3808       C  0.90577336  0.69266419  0.68810476    -0.00700
C3809       C  0.92554810  0.67590377  0.68142170    -0.12400
C3810       C  0.93588023  0.67542834  0.65406898     0.01500
H3811       H  0.92691235  0.74394143  0.63055342     0.14500
H3812       H  0.92588568  0.65717128  0.69580557     0.14500
C3813       C  0.94856699  0.65122324  0.64715610     0.36100
C3814       C  0.91024814  0.75162603  0.68177099     0.36000
N3815       N  0.95869128  0.63172171  0.64190118    -0.44200
N3816       N  0.90687121  0.77477320  0.69006267    -0.44200
C3817       C  0.89335158  0.98903031  0.68360280    -0.00600
C3818       C  0.89636493  0.51720372  0.70086363    -0.12500
C3819       C  0.92742330  0.55077117  0.70182579     0.01600
C3820       C  0.95803791  0.55772631  0.68601356    -0.00700
C3821       C  0.95568407  0.53109633  0.66818533    -0.12400
C3822       C  0.92359252  0.99597090  0.66712129     0.01500
H3823       H  0.87369108  0.51232638  0.71384833     0.14500
H3824       H  0.97883942  0.53612529  0.65577619     0.14500
C3825       C  0.92457791  0.96878739  0.65052451     0.36100
C3826       C  0.92709617  0.57741534  0.71956021     0.36000
N3827       N  0.92553449  0.94708335  0.63723590    -0.44200
N3828       N  0.92679581  0.59866573  0.73383722    -0.44200
C3829       C  0.89742708  0.85052891  0.69298895    -0.00600
C3830       C  0.91617225  0.85735595  0.66775248    -0.12500
C3831       C  0.94987352  0.85981932  0.66590655     0.01600
C3832       C  0.96515769  0.85500144  0.68954992    -0.00700
C3833       C  0.94698699  0.84889326  0.71466941    -0.12400
C3834       C  0.91378253  0.84677687  0.71675330     0.01500
H3835       H  0.90457873  0.86083231  0.64940431     0.14500
H3836       H  0.95897223  0.84581280  0.73298344     0.14500
C3837       C  0.89802182  0.84122389  0.74393352     0.36100
C3838       C  0.96764019  0.86619166  0.63950220     0.36000
N3839       N  0.88581869  0.83671256  0.76584244    -0.44200
N3840       N  0.98178381  0.87128684  0.61828227    -0.44200
C3841       C  0.60401079  0.99019149  0.68634884    -0.00600
C3842       C  0.58238280  0.49374827  0.66746283    -0.12500
C3843       C  0.57970408  0.52480112  0.66653680     0.01600
C3844       C  0.60032835  0.55374920  0.68430141    -0.00700
C3845       C  0.62476619  0.55120141  0.70134883    -0.12400
C3846       C  0.62778677  0.02115393  0.70095466     0.01500
H3847       H  0.55956673  0.96779047  0.65891010     0.14500
H3848       H  0.64100055  0.57287869  0.71507732     0.14500
C3849       C  0.65601435  0.02249925  0.71715097     0.36100
C3850       C  0.55523667  0.52577003  0.64739487     0.36000
N3851       N  0.67861463  0.02362445  0.73016277    -0.44200
N3852       N  0.53565188  0.52634406  0.63190309    -0.44200
C3853       C  0.60255388  0.73759682  0.84015280    -0.00600
C3854       C  0.59866073  0.75387230  0.81646768    -0.12500
C3855       C  0.59659850  0.73969979  0.79044862     0.01600
C3856       C  0.59742441  0.70797209  0.78755995    -0.00700
C3857       C  0.59715121  0.68944325  0.81121116    -0.12400
C3858       C  0.59921481  0.70371931  0.83736154     0.01500
H3859       H  0.60029045  0.77944362  0.81762873     0.14500
H3860       H  0.59559567  0.66379219  0.80927714     0.14500
C3861       C  0.59888203  0.68368032  0.86091244     0.36100
C3862       C  0.59664510  0.75975880  0.76697421     0.36000
N3863       N  0.59848201  0.66748443  0.87974613    -0.44200
N3864       N  0.59685645  0.77570062  0.74803778    -0.44200
C3865       C  0.70866101  0.80719116  0.84125365    -0.00600
C3866       C  0.69395311  0.78538503  0.81793423    -0.12500
C3867       C  0.70799516  0.79742252  0.79170821     0.01600
C3868       C  0.73792906  0.83165255  0.78826575    -0.00700
C3869       C  0.75580062  0.85127873  0.81166528    -0.12400
C3870       C  0.74188736  0.83891899  0.83802316     0.01500
H3871       H  0.66947735  0.76001292  0.81950628     0.14500
H3872       H  0.78060807  0.87650798  0.80939734     0.14500
C3873       C  0.76137189  0.85971913  0.86137640     0.36100
C3874       C  0.68981225  0.77505257  0.76860717     0.36000
N3875       N  0.77707286  0.87630947  0.88009310    -0.44200
N3876       N  0.67565606  0.75742042  0.74987914    -0.44200
C3877       C  0.63853451  0.84388199  0.84083926    -0.00600
C3878       C  0.66168587  0.85176353  0.81769658    -0.12500
C3879       C  0.65148411  0.85558330  0.79158299     0.01600
C3880       C  0.61744613  0.85137130  0.78801628    -0.00700
C3881       C  0.59626532  0.84808502  0.81133858    -0.12400
C3882       C  0.60691087  0.84523992  0.83759798     0.01500
H3883       H  0.68672837  0.85214002  0.81924213     0.14500
H3884       H  0.57109171  0.84753292  0.80907354     0.14500
C3885       C  0.58428444  0.84234802  0.86074155     0.36100
C3886       C  0.67555517  0.86186264  0.76864605     0.36000
N3887       N  0.56607022  0.84004053  0.87922925    -0.44200
N3888       N  0.69455969  0.86719421  0.75001679    -0.44200
C3889       C  0.78374880  0.72193095  0.85494550    -0.00600
C3890       C  0.78046907  0.69487824  0.83709035    -0.12500
C3891       C  0.74857902  0.66154321  0.83626460     0.01600
C3892       C  0.71916516  0.65476502  0.85366875    -0.00700
C3893       C  0.72171523  0.68278539  0.86987498    -0.12400
C3894       C  0.75325927  0.71599791  0.87050987     0.01500
H3895       H  0.80349586  0.69901298  0.82488776     0.14500
H3896       H  0.69913666  0.67842163  0.88278481     0.14500
C3897       C  0.75351829  0.74347397  0.88753629     0.36100
C3898       C  0.74781142  0.63420150  0.81877951     0.36000
N3899       N  0.75360493  0.76545651  0.90113951    -0.44200
N3900       N  0.74731792  0.61242817  0.80466322    -0.44200
C3901       C  0.92658813  0.65429963  0.85196240    -0.00600
C3902       C  0.95398716  0.68447991  0.86491669    -0.12500
C3903       C  0.95466640  0.71708295  0.86539420     0.01600
C3904       C  0.92725712  0.72037127  0.85265845    -0.00700
C3905       C  0.90093141  0.69073351  0.83839735    -0.12400
C3906       C  0.90039646  0.65811210  0.83780833     0.01500
H3907       H  0.97467296  0.68247950  0.87555497     0.14500
H3908       H  0.87999599  0.69267827  0.82811115     0.14500
C3909       C  0.87219932  0.62911854  0.82279581     0.36100
C3910       C  0.98342884  0.74604033  0.88001955     0.36000
N3911       N  0.84958333  0.60598458  0.81070591    -0.44200
N3912       N  0.00656644  0.76896437  0.89186893    -0.44200
C3913       C  0.72901192  0.51936469  0.85145371    -0.00600
C3914       C  0.75844005  0.54728465  0.86447484    -0.12500
C3915       C  0.79054036  0.54713436  0.86670984     0.01600
C3916       C  0.79393304  0.51898241  0.85529729    -0.00700
C3917       C  0.76514240  0.49186406  0.84095911    -0.12400
C3918       C  0.73261101  0.49174963  0.83914985     0.01500
H3919       H  0.75587267  0.56863454  0.87388648     0.14500
H3920       H  0.76195751  0.96640835  0.83481416     0.14500
C3921       C  0.69748247  0.95950546  0.82892819     0.36100
C3922       C  0.81968941  0.57613377  0.88104030     0.36000
N3923       N  0.67247257  0.93517291  0.81997616    -0.47800
N3924       N  0.84307261  0.59935586  0.89247645    -0.44200
C3925       C  0.92942930  0.90039807  0.01088371    -0.00600
C3926       C  0.91791530  0.91232210  0.98849654    -0.12500
C3927       C  0.91551286  0.89860756  0.96225992     0.01600
C3928       C  0.92426372  0.87186150  0.95774616    -0.00700
C3929       C  0.93112113  0.85660180  0.98055017    -0.12400
C3930       C  0.93291654  0.87007335  0.00699027     0.01500
H3931       H  0.91346201  0.93449539  0.99060968     0.14500
H3932       H  0.93507773  0.83400073  0.97778908     0.14500
C3933       C  0.94070891  0.85445018  0.52968045     0.36100
C3934       C  0.90559430  0.91374235  0.94025391     0.36000
N3935       N  0.94773039  0.84185017  0.54754311    -0.44200
N3936       N  0.89734504  0.92543392  0.92251871    -0.44200
C3937       C  0.53371347  0.98053856  0.00790467    -0.00600
C3938       C  0.51982230  0.95779289  0.98492129    -0.12500
C3939       C  0.53539079  0.96808159  0.95896064     0.01600
C3940       C  0.56472406  0.49904595  0.95463992    -0.00700
C3941       C  0.58286465  0.51466770  0.97900276    -0.12400
C3942       C  0.56541501  0.50354901  0.00459865     0.01500
H3943       H  0.49554009  0.93237383  0.98654222     0.14500
H3944       H  0.61081075  0.53546163  0.97799255     0.14500
C3945       C  0.58506815  0.52000767  0.02906846     0.36100
C3946       C  0.51935604  0.94405417  0.93621618     0.36000
N3947       N  0.59826450  0.53912117  0.54839995    -0.44200
N3948       N  0.50665720  0.92497155  0.91790790    -0.44200
C3949       C  0.93809587  0.50792472  0.95565835    -0.00600
C3950       C  0.91088744  0.49482403  0.97591554    -0.12500
C3951       C  0.91965307  0.99762775  0.00420167     0.01600
C3952       C  0.95417671  0.00314426  0.00944915    -0.00700
C3953       C  0.97971995  0.01612576  0.98761489    -0.12400
C3954       C  0.97362063  0.52176402  0.96361132     0.01500
H3955       H  0.88398700  0.48803626  0.97047299     0.14500
H3956       H  0.00705156  0.02287234  0.99049901     0.14500
C3957       C  0.00310985  0.53885362  0.94412803     0.36100
C3958       C  0.89377977  0.99024688  0.02601685     0.36000
N3959       N  0.02672303  0.55257873  0.92855729    -0.44200
N3960       N  0.86557629  0.97617464  0.53956308    -0.44200
loop_ 
_geom_bond_atom_site_label_1 
_geom_bond_atom_site_label_2 
_geom_bond_distance 
_geom_bond_site_symmetry_2 
_ccdc_geom_bond_type 
C1            N2   1.358       .  A
C1            N6   1.365       .  A
C1         C2013   1.486   1_455  S
N2            C3   1.360       .  A
C3            N4   1.356       .  A
C3          C142   1.473       .  S
N4            C5   1.361       .  A
C5            N6   1.368       .  A
C5           C83   1.475       .  S
C7            N8   1.357       .  A
C7           N12   1.366       .  A
C7           C77   1.487       .  S
N8            C9   1.360       .  A
C9           N10   1.356       .  A
C9          C120   1.472       .  S
N10          C11   1.362       .  A
C11          N12   1.368       .  A
C11        C2041   1.480   1_455  S
C13         C487   1.505       .  S
C13          C14   1.407       .  A
C13        C1008   1.405       .  A
C14          C15   1.404       .  A
C14          H19   1.081       .  S
C15         C460   1.499       .  S
C15          C16   1.411       .  A
C16        C1997   1.404       .  A
C16        H2000   1.083       .  S
C17         C472   1.501       .  S
C17        C1996   1.404   1_455  A
C17        C2988   1.408   1_455  A
C18        C1003   1.408       .  A
C18        C2987   1.403       .  A
C18        H2001   1.084   1_565  S
H20        C1996   1.082       .  S
H21        C1998   1.083   1_445  S
O22         Cr40   2.016       .  S
O22          C30   1.262       .  A
O23         Cr40   1.989       .  S
O23          C24   1.258       .  A
C24         C436   1.501       .  S
C24          O25   1.264       .  A
O25         Cr41   2.009       .  S
O26         Cr41   1.999       .  S
O26          C27   1.270       .  A
C27         C189   1.467       .  S
C27          O28   1.263       .  A
O28         Cr42   1.974       .  S
O29         Cr42   1.972       .  S
O29          C30   1.254       .  A
C30         C451   1.481       .  S
O31         Cr40   1.978       .  S
O31        C1029   1.262   1_545  A
O32         Cr40   2.024       .  S
O32          C33   1.271       .  A
C33        C1981   1.488       .  S
C33          O34   1.261       .  A
O34         Cr41   1.995       .  S
O35         Cr41   1.966       .  S
O35          C36   1.254       .  A
C36         C484   1.464       .  S
C36          O37   1.261   1_545  A
O37         Cr42   1.982   1_565  S
O38       Cr1032   2.016       .  S
O38          C39   1.268       .  A
C39          C90   1.476       .  S
C39        O1021   1.262       .  A
Cr40         O43   1.785       .  S
Cr41         O43   1.786       .  S
Cr42       O1028   2.012   1_545  S
Cr42         O43   1.782       .  S
O44         Cr62   1.995       .  S
O44          C52   1.260       .  A
O45         Cr62   2.016       .  S
O45          C46   1.266       .  A
C46         C424   1.490       .  S
C46          O47   1.255       .  A
O47         Cr63   1.962       .  S
O48         Cr63   2.001       .  S
O48          C49   1.271       .  A
C49         C195   1.467       .  S
C49          O50   1.268       .  A
O50         Cr64   1.986       .  S
O51         Cr64   2.004       .  S
O51          C52   1.261       .  A
C52         C439   1.501       .  S
O53         Cr62   2.027       .  S
O53          C61   1.274       .  A
O54         Cr62   1.992       .  S
O54          C55   1.264       .  A
C55          C88   1.482       .  S
C55          O56   1.265       .  A
O56         Cr63   2.009       .  S
O57         Cr63   1.956       .  S
O57          C58   1.251       .  A
C58         C463   1.476       .  S
C58          O59   1.254       .  A
O59         Cr64   1.991       .  S
O60         Cr64   1.986       .  S
O60          C61   1.264       .  A
C61        C1991   1.480       .  S
Cr62         O65   1.777       .  S
Cr63         O65   1.774       .  S
Cr64         O65   1.793       .  S
O66         Cr84   2.009       .  S
O66          C74   1.264       .  A
O67         Cr84   1.988       .  S
O67          C68   1.254       .  A
C68         C448   1.480       .  S
C68          O69   1.257   1_545  A
O69         Cr85   2.010   1_565  S
O70         Cr85   1.992       .  S
O70          C71   1.271       .  A
C71         C276   1.468       .  S
C71          O72   1.270       .  A
O72         Cr86   1.998       .  S
O73         Cr86   1.970       .  S
O73          C74   1.258       .  A
C74         C427   1.492       .  S
O75         Cr84   1.983       .  S
O75          C83   1.262       .  A
O76         Cr84   2.030   1_565  S
O76        C1067   1.277       .  A
C77          O78   1.263       .  A
C77        O1066   1.275       .  A
O78       Cr1075   1.991       .  S
O79         Cr85   1.980       .  S
O79          C80   1.252       .  A
C80         C475   1.465       .  S
C80          O81   1.256       .  A
O81         Cr86   1.984       .  S
O82         Cr86   2.003       .  S
O82          C83   1.264       .  A
Cr84         O87   1.779       .  S
Cr85       O1068   1.988   1_545  S
Cr85         O87   1.790       .  S
Cr86         O87   1.776       .  S
C88          N89   1.368       .  A
C88          N93   1.355       .  A
N89          C90   1.369       .  A
C90          N91   1.359       .  A
N91          C92   1.356       .  A
C92          N93   1.358       .  A
C92         C164   1.466       .  S
C94          N95   1.351       .  A
C94          N99   1.363       .  A
C94         C126   1.469       .  S
N95          C96   1.354       .  A
C96          N97   1.358       .  A
C96         C235   1.462       .  S
N97          C98   1.363       .  A
C98          N99   1.365       .  A
C98         C176   1.477       .  S
C100        N101   1.366       .  A
C100       N2085   1.360       .  A
C100        C132   1.494       .  S
N101        C102   1.370       .  A
C102       N2083   1.357       .  A
C102        C148   1.473       .  S
N103        C104   1.354       .  A
N103       C2082   1.358       .  A
C104        N105   1.364       .  A
C104       C2193   1.474       .  S
N105       C2080   1.362       .  A
C106        C412   1.500       .  S
C106        C107   1.409       .  A
C106        C111   1.402       .  A
C107        C108   1.403       .  A
C107        H112   1.083       .  S
C108        C388   1.497       .  S
C108        C109   1.409       .  A
C109        C110   1.404       .  A
C109        H113   1.083       .  S
C110        C400   1.500       .  S
C110        C111   1.409       .  A
C111        H114   1.083       .  S
O115       Cr133   1.982       .  S
O115       C2103   1.257   1_455  A
O116       Cr133   2.024       .  S
O116        C117   1.267       .  A
C117        C376   1.498       .  S
C117        O118   1.254       .  A
O118       Cr134   1.963       .  S
O119       Cr134   1.991       .  S
O119        C120   1.266       .  A
C120        O121   1.273       .  A
O121       Cr135   2.002       .  S
O122      Cr2115   2.004       .  S
O122        C123   1.265       .  A
C123        C367   1.483       .  S
C123       O2095   1.257       .  A
O124       Cr133   2.024       .  S
O124        C132   1.272       .  A
O125       Cr133   1.977       .  S
O125        C126   1.260       .  A
C126        O127   1.263       .  A
O127       Cr134   1.998       .  S
O128       Cr134   1.962       .  S
O128        C129   1.252       .  A
C129        C415   1.474       .  S
C129        O130   1.255       .  A
O130       Cr135   1.984       .  S
O131       Cr135   2.009       .  S
O131        C132   1.268       .  A
Cr133       O136   1.784       .  S
Cr134       O136   1.778       .  S
Cr135      O2102   2.002       .  S
Cr135       O136   1.786       .  S
O137       Cr155   2.000       .  S
O137        C145   1.261       .  A
O138       Cr155   2.010       .  S
O138       C2119   1.264   1_455  A
C139        C355   1.479       .  S
C139        O140   1.255       .  A
C139       O2118   1.264       .  A
O140      Cr2136   1.959       .  S
O141       Cr156   1.994       .  S
O141        C142   1.267       .  A
C142        O143   1.272       .  A
O143       Cr157   1.998       .  S
O144       Cr157   2.011       .  S
O144        C145   1.265       .  A
C145        C379   1.505       .  S
O146       Cr155   2.014       .  S
O146        C154   1.271       .  A
O147       Cr155   1.989       .  S
O147        C148   1.263       .  A
C148        O149   1.263       .  A
O149       Cr156   1.997       .  S
O150       Cr156   1.965       .  S
O150        C151   1.253       .  A
C151        C391   1.472       .  S
C151        O152   1.255       .  A
O152       Cr157   1.985       .  S
O153       Cr157   2.006       .  S
O153        C154   1.266       .  A
C154        C181   1.487       .  S
Cr155       O158   1.782       .  S
Cr156      O2120   1.960   1_455  S
Cr156       O158   1.779       .  S
Cr157       O158   1.785       .  S
O159       Cr177   1.983       .  S
O159        C167   1.256       .  A
O160       Cr177   2.021       .  S
O160        C161   1.267       .  A
C161        C364   1.498       .  S
C161        O162   1.251       .  A
O162       Cr178   1.945       .  S
O163       Cr178   1.996       .  S
O163        C164   1.268       .  A
C164        O165   1.271       .  A
O165       Cr179   1.992       .  S
O166       Cr179   2.007       .  S
O166        C167   1.263       .  A
C167        C352   1.494       .  S
O168       Cr177   2.018       .  S
O168        C176   1.273       .  A
O169       Cr177   1.983       .  S
O169        C170   1.260       .  A
C170        C183   1.472       .  S
C170        O171   1.261       .  A
O171       Cr178   1.994       .  S
O172       Cr178   1.956       .  S
O172        C173   1.249       .  A
C173        C403   1.475       .  S
C173        O174   1.257       .  A
O174       Cr179   2.000       .  S
O175       Cr179   1.990       .  S
O175        C176   1.267       .  A
Cr177       O180   1.780       .  S
Cr178       O180   1.771       .  S
Cr179       O180   1.784       .  S
C181        N182   1.366       .  A
C181        N186   1.356       .  A
N182        C183   1.371       .  A
C183        N184   1.358       .  A
N184        C185   1.354       .  A
C185        N186   1.357       .  A
C185        C257   1.463       .  S
C187        N192   1.372       .  A
C187        N683   1.364   1_554  A
C187        C219   1.487       .  S
N188        C189   1.355       .  A
N188        C682   1.365       .  A
C189        N190   1.354       .  A
N190        C686   1.351       .  A
C191        N192   1.371       .  A
C191        N685   1.351   1_554  A
C191       C1237   1.482       .  S
C193        N198   1.363   1_556  A
C193        N689   1.352       .  A
C193        C263   1.469   1_556  S
N194        C195   1.351       .  A
N194        C688   1.351       .  A
C195        N196   1.358       .  A
N196        C692   1.364       .  A
C197        N198   1.366   1_556  A
C197        N691   1.362       .  A
C197        C225   1.471   1_556  S
C199        C316   1.500       .  S
C199        C200   1.398       .  A
C199        C204   1.416       .  A
C200        C201   1.387       .  A
C200        H205   1.082       .  S
C201        C328   1.474       .  S
C201        C202   1.392       .  A
C202        C203   1.416       .  A
C202        H206   1.081       .  S
C203        C343   1.519       .  S
C203        C204   1.417       .  A
C204        H207   1.076       .  S
O208       Cr226   1.992   1_455  S
O208        C216   1.257       .  A
O209       Cr226   1.998   1_455  S
O209        C210   1.254       .  A
C210        C292   1.486       .  S
C210        O211   1.252   1_455  A
O211      Cr2207   1.985       .  S
O212      Cr2207   2.000   1_455  S
O212        C213   1.279       .  A
C213       C2084   1.471       .  S
C213        O214   1.272       .  A
O214      Cr2208   1.995   1_455  S
O215      Cr2208   1.964   1_455  S
O215        C216   1.255       .  A
C216        C304   1.495       .  S
O217      Cr2701   1.987       .  S
O217        C720   1.264       .  A
O218      Cr2701   2.022       .  S
O218        C714   1.277       .  A
C219        O220   1.272       .  A
C219        O713   1.276   1_554  A
O220       Cr227   2.004       .  S
O221       Cr227   1.962       .  S
O221        C222   1.243       .  A
C222        C340   1.491       .  S
C222        O223   1.257       .  A
O223       Cr228   1.971       .  S
O224       Cr228   1.999       .  S
O224        C225   1.266       .  A
C225        O712   1.264   1_554  A
Cr226      O2692   1.985   1_554  S
Cr226      O2693   2.019       .  S
Cr226      O2209   1.789       .  S
Cr227      O2191   1.984       .  S
Cr227      O2192   2.006       .  S
Cr227       O229   1.794       .  S
Cr228      O2194   1.992       .  S
Cr228      O2195   1.966       .  S
Cr228       O229   1.787       .  S
O229      Cr2206   1.791       .  S
O230       Cr248   1.974       .  S
O230        C238   1.255       .  A
O231       Cr248   2.032       .  S
O231        C232   1.268       .  A
C232        C307   1.489       .  S
C232        O233   1.252       .  A
O233       Cr249   1.944       .  S
O234       Cr249   1.990       .  S
O234        C235   1.268       .  A
C235        O236   1.267       .  A
O236       Cr250   1.987       .  S
O237       Cr250   2.009       .  S
O237        C238   1.264       .  A
C238        C280   1.491       .  S
O239       Cr743   2.029       .  S
O239        C742   1.277       .  A
O240       Cr743   1.960       .  S
O240        C736   1.256       .  A
C241       C1264   1.457   1_554  S
C241        O242   1.265       .  A
C241        O735   1.256   1_554  A
O242       Cr249   2.005       .  S
O243      Cr1239   1.966   1_545  S
O243        C244   1.253       .  A
C244        C331   1.446       .  S
C244        O245   1.251   1_545  A
O245      Cr1240   1.977       .  S
O246       Cr250   1.988       .  S
O246        C247   1.261       .  A
C247       C1181   1.484       .  S
C247        O734   1.277   1_554  A
Cr248       O734   2.031   1_554  S
Cr248       O735   1.959   1_554  S
Cr248       O251   1.776       .  S
Cr249      O1233   1.964       .  S
Cr249       O251   1.766       .  S
Cr250      O1235   1.983       .  S
Cr250       O251   1.783       .  S
O252       Cr270   1.993       .  S
O252        C260   1.260       .  A
O253       Cr270   1.996       .  S
O253        C254   1.256       .  A
C254        C283   1.491       .  S
C254        O255   1.250       .  A
O255       Cr271   1.985       .  S
O256       Cr271   1.992       .  S
O256        C257   1.274       .  A
C257        O258   1.269       .  A
O258       Cr272   1.986       .  S
O259       Cr272   1.966       .  S
O259        C260   1.255       .  A
C260        C295   1.494       .  S
O261       Cr270   1.985   1_556  S
O261        C269   1.263   1_556  A
O262       Cr270   2.012   1_556  S
O262        C263   1.274   1_556  A
C263        O264   1.264       .  A
O264       Cr271   1.984       .  S
O265       Cr271   1.942       .  S
O265        C266   1.244       .  A
C266        C319   1.459       .  S
C266        O267   1.257       .  A
O267       Cr272   1.988       .  S
O268       Cr272   2.001       .  S
O268        C269   1.264       .  A
C269        C278   1.475   1_554  S
Cr270       O273   1.783       .  S
Cr271       O273   1.783       .  S
Cr272       O273   1.784       .  S
C274        N279   1.366   1_556  A
C274        N770   1.361       .  A
C274       C1231   1.472   1_556  S
N275        C276   1.356       .  A
N275        C769   1.361       .  A
C276        N277   1.357       .  A
N277        C773   1.356       .  A
C278        N279   1.364   1_556  A
C278        N772   1.354       .  A
C280        C281   1.404       .  A
C280        C285   1.418   1_554  A
C281        C282   1.398       .  A
C281        H286   1.085       .  S
C282        C283   1.420       .  A
C282        C289   1.446       .  S
C283        C284   1.405   1_554  A
C284        C285   1.402       .  A
C284        H287   1.085       .  S
C285        C288   1.444       .  S
C288        N290   1.157       .  T
C289        N291   1.158       .  T
C292        C293   1.404       .  A
C292        C297   1.412   1_554  A
C293        C294   1.396       .  A
C293        H298   1.085       .  S
C294        C295   1.418       .  A
C294        C301   1.446       .  S
C295        C296   1.411   1_554  A
C296        C297   1.406       .  A
C296        H299   1.084       .  S
C297        C300   1.443       .  S
C300        N797   1.157       .  T
C301        N303   1.158       .  T
N302        C795   1.157       .  T
C304        C305   1.405       .  A
C304        C309   1.419   1_554  A
C305        C306   1.394       .  A
C305        H310   1.085       .  S
C306        C307   1.417       .  A
C306        C313   1.447       .  S
C307        C308   1.405   1_554  A
C308        C309   1.410       .  A
C308        H311   1.083       .  S
C309        C312   1.443       .  S
C312        N809   1.157       .  T
C313        N315   1.158       .  T
N314        C807   1.157       .  T
C316        C317   1.404       .  A
C316        C321   1.417       .  A
C317        C318   1.385       .  A
C317        H322   1.071       .  S
C318        C319   1.404       .  A
C318        C325   1.450       .  S
C319        C320   1.404       .  A
C320        C321   1.406       .  A
C320        H323   1.085       .  S
C321        C324   1.443       .  S
C324        N326   1.157       .  T
C325        N327   1.158       .  T
C328        C329   1.398       .  A
C328        C333   1.419       .  A
C329        C330   1.398       .  A
C329        H334   1.085       .  S
C330        C331   1.410       .  A
C330       C1327   1.437       .  S
C331        C332   1.380       .  A
C332        C333   1.383       .  A
C332        H335   1.087       .  S
C333        C336   1.430       .  S
C336        N338   1.152       .  T
C337       C1320   1.438       .  S
C337        N339   1.156       .  T
C340        C341   1.403       .  A
C340        C345   1.424       .  A
C341        C342   1.400       .  A
C341        H346   1.085       .  S
C342        C343   1.416       .  A
C342        C349   1.434       .  S
C343        C344   1.406       .  A
C344        C345   1.404       .  A
C344        H347   1.084       .  S
C345        C348   1.445       .  S
C348        N350   1.157       .  T
C349        N351   1.154       .  T
C352        C357   1.419       .  A
C352       C1343   1.408       .  A
C353        C354   1.397       .  A
C353       C1342   1.407   1_545  A
C353        H358   1.084       .  S
C354        C355   1.410       .  A
C354        C361   1.444       .  S
C355        C356   1.402       .  A
C356       C1347   1.404   1_545  A
C356        H359   1.083       .  S
C357       C1346   1.404       .  A
C357        C360   1.444       .  S
C360        N362   1.158       .  T
C361        N363   1.157       .  T
C364        C365   1.410       .  A
C364        C369   1.425       .  A
C365        C366   1.409       .  A
C365        H370   1.084       .  S
C366        C367   1.413       .  A
C366        C373   1.443       .  S
C367        C368   1.399       .  A
C368        C369   1.396       .  A
C368        H371   1.086       .  S
C369        C372   1.447       .  S
C372        N374   1.158       .  T
C373        N375   1.157       .  T
C376        C381   1.417       .  A
C376       C1367   1.408       .  A
C377        C378   1.411   1_565  A
C377       C1366   1.407       .  A
C377       H1372   1.085       .  S
C378        C379   1.421       .  A
C378        C385   1.443       .  S
C379        C380   1.408       .  A
C380       C1371   1.401       .  A
C380        H383   1.083       .  S
C381       C1370   1.400       .  A
C381        C384   1.446       .  S
H382       C1367   1.085       .  S
C384        N386   1.157       .  T
C385        N387   1.157       .  T
C388        C389   1.418       .  A
C388        C393   1.409       .  A
C389        C390   1.395       .  A
C389        H394   1.079       .  S
C390        C391   1.401       .  A
C390        C397   1.445       .  S
C391        C392   1.409       .  A
C392        C393   1.398       .  A
C392        H395   1.085       .  S
C393        C396   1.444       .  S
C396        N398   1.157       .  T
C397        N399   1.157       .  T
C400        C401   1.417       .  A
C400        C405   1.410       .  A
C401        C402   1.395       .  A
C401        H406   1.080       .  S
C402        C403   1.405       .  A
C402        C409   1.445       .  S
C403        C404   1.409       .  A
C404        C405   1.400       .  A
C404        H407   1.085       .  S
C405        C408   1.444       .  S
C408        N410   1.157       .  T
C409        N411   1.157       .  T
C412        C413   1.418       .  A
C412        C417   1.409       .  A
C413        C414   1.396       .  A
C413        H418   1.078       .  S
C414        C415   1.402       .  A
C414        C421   1.444       .  S
C415        C416   1.409       .  A
C416        C417   1.398       .  A
C416        H419   1.085       .  S
C417        C420   1.443       .  S
C420        N422   1.157       .  T
C421        N423   1.157       .  T
C424        C425   1.406       .  A
C424        C429   1.416       .  A
C425        C426   1.407       .  A
C425        H430   1.085       .  S
C426        C427   1.416       .  A
C426        C433   1.443       .  S
C427        C428   1.406       .  A
C428        C429   1.400       .  A
C428        H431   1.085       .  S
C429        C432   1.446       .  S
C432        N434   1.158       .  T
C433        N435   1.157       .  T
C436        C437   1.407       .  A
C436        C441   1.419       .  A
C437        C438   1.402       .  A
C437        H442   1.085       .  S
C438        C439   1.419       .  A
C438        C445   1.444       .  S
C439        C440   1.408       .  A
C440        C441   1.407       .  A
C440        H443   1.085       .  S
C441        C444   1.444       .  S
C444        N446   1.157       .  T
C445        N447   1.157       .  T
C448        C449   1.400       .  A
C448        C453   1.414   1_545  A
C449        C450   1.398       .  A
C449        H454   1.085       .  S
C450        C451   1.412       .  A
C450        C457   1.445       .  S
C451        C452   1.406   1_545  A
C452        C453   1.410       .  A
C452       H1445   1.084       .  S
C453       C1446   1.444       .  S
H455       C1442   1.084       .  S
C456       C1443   1.443       .  S
C456        N458   1.157       .  T
C457        N459   1.157       .  T
C460        C461   1.415       .  A
C460        C465   1.407       .  A
C461        C462   1.392       .  A
C461        H466   1.077       .  S
C462        C463   1.405       .  A
C462        C469   1.444       .  S
C463        C464   1.411       .  A
C464        C465   1.400       .  A
C464        H467   1.084       .  S
C465        C963   1.443       .  S
C468        C960   1.444       .  S
C468        N470   1.157       .  T
C469        N471   1.157       .  T
C472        C473   1.418       .  A
C472       C1467   1.412       .  A
C473        C474   1.395       .  A
C473        H478   1.079   1_455  S
C474       C1465   1.399       .  A
C474        C481   1.445       .  S
C475        C476   1.410       .  A
C475       C1464   1.399   1_545  A
C476        C477   1.403       .  A
C476        H479   1.085       .  S
C477       C1462   1.403   1_545  A
C477        C480   1.442       .  S
C480        N977   1.157       .  T
C481        N483   1.157       .  T
N482        C975   1.157       .  T
C484        C485   1.405   1_545  A
C484        C489   1.401       .  A
C485       C1476   1.405       .  A
C485        H490   1.085       .  S
C486        C487   1.416       .  A
C486       C1475   1.403       .  A
C486        C493   1.444       .  S
C487        C488   1.419       .  A
C488       C1479   1.390       .  A
C488        H491   1.076       .  S
C489       C1478   1.392       .  A
C489        C492   1.446       .  S
C492        N494   1.157       .  T
C493        N990   1.157       .  T
N495        C988   1.157       .  T
C496        N497   1.359       .  A
C496        N501   1.366       .  A
C496       C2508   1.489   1_455  S
N497        C498   1.361       .  A
C498        N499   1.355       .  A
C498        C637   1.473       .  S
N499        C500   1.360       .  A
C500        N501   1.368       .  A
C500        C578   1.474       .  S
C502        N503   1.358       .  A
C502        N507   1.365       .  A
C502        C572   1.487       .  S
N503        C504   1.360       .  A
C504        N505   1.356       .  A
C504        C615   1.472       .  S
N505        C506   1.361       .  A
C506        N507   1.368       .  A
C506       C2536   1.477   1_455  S
C508        C982   1.512       .  S
C508        C509   1.411       .  A
C508       C1503   1.408       .  A
C509        C510   1.406       .  A
C509        H514   1.079       .  S
C510        C955   1.502       .  S
C510        C511   1.411       .  A
C511       C2492   1.401       .  A
C511       H2495   1.083       .  S
C512        C967   1.492       .  S
C512       C2491   1.399   1_455  A
C512       C3483   1.402   1_455  A
C513       C1498   1.406       .  A
C513       C3482   1.408       .  A
C513       H2496   1.083   1_565  S
H515       C2491   1.082       .  S
H516       C2493   1.083   1_445  S
O517       Cr535   2.013       .  S
O517        C525   1.262       .  A
O518       Cr535   1.991       .  S
O518        C519   1.259       .  A
C519        C931   1.499       .  S
C519        O520   1.264       .  A
O520       Cr536   2.005       .  S
O521       Cr536   1.996       .  S
O521        C522   1.269       .  A
C522        C684   1.465       .  S
C522        O523   1.264       .  A
O523       Cr537   1.975       .  S
O524       Cr537   1.969       .  S
O524        C525   1.254       .  A
C525        C946   1.478       .  S
O526       Cr535   1.976       .  S
O526       C1524   1.262   1_545  A
O527       Cr535   2.021       .  S
O527        C528   1.271       .  A
C528       C2476   1.484       .  S
C528        O529   1.261       .  A
O529       Cr536   1.993       .  S
O530       Cr536   1.966       .  S
O530        C531   1.253       .  A
C531        C979   1.460       .  S
C531        O532   1.259   1_545  A
O532       Cr537   1.977   1_565  S
O533      Cr1527   2.015       .  S
O533        C534   1.268       .  A
C534        C585   1.465       .  S
C534       O1516   1.259       .  A
Cr535       O538   1.783       .  S
Cr536       O538   1.784       .  S
Cr537      O1523   2.011   1_545  S
Cr537       O538   1.780       .  S
O539       Cr557   1.994       .  S
O539        C547   1.259       .  A
O540       Cr557   2.013       .  S
O540        C541   1.265       .  A
C541        C919   1.488       .  S
C541        O542   1.254       .  A
O542       Cr558   1.956       .  S
O543       Cr558   2.000       .  S
O543        C544   1.270       .  A
C544        C690   1.462       .  S
C544        O545   1.267       .  A
O545       Cr559   1.981       .  S
O546       Cr559   2.004       .  S
O546        C547   1.261       .  A
C547        C934   1.499       .  S
O548       Cr557   2.024       .  S
O548        C556   1.274       .  A
O549       Cr557   1.985       .  S
O549        C550   1.263       .  A
C550        C583   1.475       .  S
C550        O551   1.266       .  A
O551       Cr558   2.007       .  S
O552       Cr558   1.962       .  S
O552        C553   1.252       .  A
C553        C958   1.483       .  S
C553        O554   1.256       .  A
O554       Cr559   1.994       .  S
O555       Cr559   1.983       .  S
O555        C556   1.264       .  A
C556       C2486   1.477       .  S
Cr557       O560   1.779       .  S
Cr558       O560   1.773       .  S
Cr559       O560   1.788       .  S
O561       Cr579   2.009       .  S
O561        C569   1.263       .  A
O562       Cr579   1.989       .  S
O562        C563   1.256       .  A
C563        C943   1.480       .  S
C563        O564   1.257   1_545  A
O564       Cr580   2.008   1_565  S
O565       Cr580   1.996       .  S
O565        C566   1.271       .  A
C566        C771   1.467       .  S
C566        O567   1.268       .  A
O567       Cr581   1.991       .  S
O568       Cr581   1.965       .  S
O568        C569   1.256       .  A
C569        C922   1.490       .  S
O570       Cr579   1.983       .  S
O570        C578   1.263       .  A
O571       Cr579   2.028   1_565  S
O571       C1562   1.275       .  A
C572       O1561   1.274       .  A
C572        O573   1.266       .  A
O573      Cr1570   1.997       .  S
O574       Cr580   1.977       .  S
O574        C575   1.252       .  A
C575        C970   1.459       .  S
C575        O576   1.255       .  A
O576       Cr581   1.975       .  S
O577       Cr581   2.002       .  S
O577        C578   1.264       .  A
Cr579       O582   1.780       .  S
Cr580      O1563   1.990   1_545  S
Cr580       O582   1.790       .  S
Cr581       O582   1.779       .  S
C583        N584   1.364       .  A
C583        N588   1.356       .  A
N584        C585   1.365       .  A
C585        N586   1.359       .  A
N586        C587   1.354       .  A
C587        N588   1.359       .  A
C587        C659   1.465       .  S
C589        N590   1.351       .  A
C589        N594   1.365       .  A
C589        C621   1.472       .  S
N590        C591   1.353       .  A
C591        N592   1.360       .  A
C591        C730   1.464       .  S
N592        C593   1.364       .  A
C593        N594   1.367       .  A
C593        C671   1.484       .  S
C595        N596   1.365       .  A
C595       N2580   1.360       .  A
C595        C627   1.493       .  S
N596        C597   1.369       .  A
C597       N2578   1.359       .  A
C597        C643   1.471       .  S
N598       C2577   1.359       .  A
N598        C599   1.355       .  A
C599        N600   1.364       .  A
C599       C2688   1.474       .  S
N600       C2575   1.361       .  A
C601        C907   1.506       .  S
C601        C602   1.411       .  A
C601        C606   1.404       .  A
C602        C603   1.403       .  A
C602        H607   1.081       .  S
C603        C883   1.493       .  S
C603        C604   1.408       .  A
C604        C605   1.404       .  A
C604        H608   1.084       .  S
C605        C895   1.503       .  S
C605        C606   1.408       .  A
C606        H609   1.082       .  S
O610       Cr628   1.985       .  S
O610       C2598   1.257   1_455  A
O611       Cr628   2.019       .  S
O611        C612   1.265       .  A
C612        C871   1.499       .  S
C612        O613   1.256       .  A
O613       Cr629   1.970       .  S
O614       Cr629   1.987       .  S
O614        C615   1.266       .  A
C615        O616   1.274       .  A
O616       Cr630   2.003       .  S
O617      Cr2610   2.003       .  S
O617        C618   1.264       .  A
C618        C862   1.483       .  S
C618       O2590   1.257       .  A
O619       Cr628   2.021       .  S
O619        C627   1.271       .  A
O620       Cr628   1.982       .  S
O620        C621   1.262       .  A
C621        O622   1.264       .  A
O622       Cr629   1.998       .  S
O623       Cr629   1.967       .  S
O623        C624   1.254       .  A
C624        C910   1.479       .  S
C624        O625   1.253       .  A
O625       Cr630   1.979       .  S
O626       Cr630   2.009       .  S
O626        C627   1.268       .  A
Cr628       O631   1.786       .  S
Cr629       O631   1.779       .  S
Cr630      O2597   2.000   1_455  S
Cr630       O631   1.788       .  S
O632       Cr650   1.999       .  S
O632        C640   1.261       .  A
O633       Cr650   2.009       .  S
O633       C2614   1.264   1_455  A
C634        C850   1.485       .  S
C634       O2613   1.264       .  A
C634        O635   1.255       .  A
O635      Cr2631   1.958       .  S
O636       Cr651   1.995       .  S
O636        C637   1.267       .  A
C637        O638   1.273       .  A
O638       Cr652   2.001       .  S
O639       Cr652   2.007       .  S
O639        C640   1.264       .  A
C640        C874   1.502       .  S
O641       Cr650   2.018       .  S
O641        C649   1.271       .  A
O642       Cr650   1.987       .  S
O642        C643   1.263       .  A
C643        O644   1.262       .  A
O644       Cr651   1.994       .  S
O645       Cr651   1.962       .  S
O645        C646   1.252       .  A
C646        C886   1.469       .  S
C646        O647   1.254       .  A
O647       Cr652   1.984       .  S
O648       Cr652   2.007       .  S
O648        C649   1.267       .  A
C649        C676   1.490       .  S
Cr650       O653   1.781       .  S
Cr651      O2615   1.958   1_455  S
Cr651       O653   1.779       .  S
Cr652       O653   1.786       .  S
O654       Cr672   1.986       .  S
O654        C662   1.255       .  A
O655       Cr672   2.016       .  S
O655        C656   1.267       .  A
C656        C859   1.498       .  S
C656        O657   1.252       .  A
O657       Cr673   1.951       .  S
O658       Cr673   1.989       .  S
O658        C659   1.267       .  A
C659        O660   1.272       .  A
O660       Cr674   1.996       .  S
O661       Cr674   2.005       .  S
O661        C662   1.261       .  A
C662        C847   1.496       .  S
O663       Cr672   2.024       .  S
O663        C671   1.274       .  A
O664       Cr672   1.983       .  S
O664        C665   1.261       .  A
C665        C678   1.470       .  S
C665        O666   1.260       .  A
O666       Cr673   1.990       .  S
O667       Cr673   1.962       .  S
O667        C668   1.252       .  A
C668        C898   1.477       .  S
C668        O669   1.255       .  A
O669       Cr674   1.995       .  S
O670       Cr674   1.994       .  S
O670        C671   1.268       .  A
Cr672       O675   1.781       .  S
Cr673       O675   1.774       .  S
Cr674       O675   1.786       .  S
C676        N677   1.364       .  A
C676        N681   1.358       .  A
N677        C678   1.369       .  A
C678        N679   1.358       .  A
N679        C680   1.354       .  A
C680        N681   1.361       .  A
C680        C752   1.467       .  S
C682        N687   1.372       .  A
C682        C714   1.488       .  S
N683        C684   1.355       .  A
C684        N685   1.353       .  A
C686        N687   1.371       .  A
C686       C1732   1.484       .  S
C688        N693   1.364       .  A
C688        C758   1.473       .  S
N689        C690   1.351       .  A
C690        N691   1.356       .  A
C692        N693   1.368       .  A
C692        C720   1.477       .  S
C694        C811   1.500       .  S
C694        C695   1.402       .  A
C694        C699   1.414       .  A
C695        C696   1.386       .  A
C695        H700   1.082       .  S
C696        C823   1.477       .  S
C696        C697   1.395       .  A
C697        C698   1.415       .  A
C697        H701   1.079       .  S
C698        C838   1.525       .  S
C698        C699   1.418       .  A
C699        H702   1.074       .  S
O703       Cr721   1.993   1_455  S
O703        C711   1.257       .  A
O704       Cr721   1.999   1_455  S
O704        C705   1.255       .  A
C705        C787   1.490       .  S
C705        O706   1.252   1_455  A
O706      Cr2702   1.987       .  S
O707      Cr2702   2.003   1_455  S
O707        C708   1.281       .  A
C708       C2579   1.473       .  S
C708        O709   1.272       .  A
O709      Cr2703   1.993   1_455  S
O710      Cr2703   1.965   1_455  S
O710        C711   1.255       .  A
C711        C799   1.495       .  S
O712      Cr2206   1.981   1_556  S
O713      Cr2206   2.022   1_556  S
C714        O715   1.273       .  A
O715       Cr722   2.005       .  S
O716       Cr722   1.959       .  S
O716        C717   1.242       .  A
C717        C835   1.491       .  S
C717        O718   1.259       .  A
O718       Cr723   1.987       .  S
O719       Cr723   2.001       .  S
O719        C720   1.266       .  A
Cr721      O2197   1.990       .  S
Cr721      O2198   2.017       .  S
Cr721      O2704   1.789       .  S
Cr722      O2686   1.983       .  S
Cr722      O2687   2.007       .  S
Cr722       O724   1.792       .  S
Cr723      O2689   1.991       .  S
Cr723      O2690   1.974       .  S
Cr723       O724   1.788       .  S
O724      Cr2701   1.792       .  S
O725       Cr743   1.977       .  S
O725        C733   1.255       .  A
O726       Cr743   2.030       .  S
O726        C727   1.267       .  A
C727        C802   1.489       .  S
C727        O728   1.253       .  A
O728       Cr744   1.947       .  S
O729       Cr744   1.998       .  S
O729        C730   1.270       .  A
C730        O731   1.266       .  A
O731       Cr745   1.983       .  S
O732       Cr745   2.007       .  S
O732        C733   1.264       .  A
C733        C775   1.492       .  S
C736       C1759   1.461       .  S
C736        O737   1.266       .  A
O737       Cr744   2.010       .  S
O738      Cr1734   1.955   1_545  S
O738        C739   1.252       .  A
C739        C826   1.446       .  S
C739        O740   1.255       .  A
O740      Cr1735   1.984   1_545  S
O741       Cr745   1.986       .  S
O741        C742   1.260       .  A
C742       C1676   1.482       .  S
Cr743       O746   1.776       .  S
Cr744      O1728   1.966       .  S
Cr744       O746   1.766       .  S
Cr745      O1730   1.981       .  S
Cr745       O746   1.783       .  S
O747       Cr765   1.991       .  S
O747        C755   1.260       .  A
O748       Cr765   1.998       .  S
O748        C749   1.255       .  A
C749        C778   1.492       .  S
C749        O750   1.249       .  A
O750       Cr766   1.982       .  S
O751       Cr766   1.999       .  S
O751        C752   1.276       .  A
C752        O753   1.267       .  A
O753       Cr767   1.984       .  S
O754       Cr767   1.969       .  S
O754        C755   1.256       .  A
C755        C790   1.491       .  S
O756       Cr765   1.984       .  S
O756        C764   1.263       .  A
O757       Cr765   2.017       .  S
O757        C758   1.274       .  A
C758        O759   1.264       .  A
O759       Cr766   1.985       .  S
O760       Cr766   1.933       .  S
O760        C761   1.242       .  A
C761        C814   1.458       .  S
C761        O762   1.259       .  A
O762       Cr767   1.992       .  S
O763       Cr767   2.001       .  S
O763        C764   1.264       .  A
C764        C773   1.475       .  S
Cr765       O768   1.784       .  S
Cr766       O768   1.785       .  S
Cr767       O768   1.785       .  S
C769        N774   1.365       .  A
C769       C1726   1.470       .  S
N770        C771   1.356       .  A
C771        N772   1.357       .  A
C773        N774   1.364       .  A
C775        C776   1.404       .  A
C775        C780   1.419       .  A
C776        C777   1.397       .  A
C776        H781   1.085       .  S
C777        C778   1.420       .  A
C777        C784   1.446       .  S
C778        C779   1.405       .  A
C779        C780   1.403       .  A
C779        H782   1.085       .  S
C780        C783   1.443       .  S
C783        N785   1.157       .  T
C784        N786   1.158       .  T
C787        C788   1.407       .  A
C787        C792   1.413       .  A
C788        C789   1.398       .  A
C788        H793   1.085       .  S
C789        C790   1.416       .  A
C789        C796   1.446       .  S
C790        C791   1.409       .  A
C791        C792   1.405       .  A
C791        H794   1.085       .  S
C792        C795   1.443       .  S
C796        N798   1.158       .  T
C799        C800   1.405       .  A
C799        C804   1.418       .  A
C800        C801   1.393       .  A
C800        H805   1.085       .  S
C801        C802   1.415       .  A
C801        C808   1.447       .  S
C802        C803   1.405       .  A
C803        C804   1.410       .  A
C803        H806   1.083       .  S
C804        C807   1.443       .  S
C808        N810   1.157       .  T
C811        C812   1.408       .  A
C811        C816   1.415       .  A
C812        C813   1.391       .  A
C812        H817   1.076       .  S
C813        C814   1.408       .  A
C813        C820   1.449       .  S
C814        C815   1.403       .  A
C815        C816   1.402       .  A
C815        H818   1.085       .  S
C816        C819   1.443       .  S
C819        N821   1.157       .  T
C820        N822   1.157       .  T
C823        C824   1.401       .  A
C823        C828   1.418       .  A
C824        C825   1.402       .  A
C824        H829   1.085       .  S
C825        C826   1.412       .  A
C825       C1822   1.441   1_545  S
C826        C827   1.379       .  A
C827        C828   1.380       .  A
C827        H830   1.087       .  S
C828        C831   1.430       .  S
C831        N833   1.152       .  T
C832       C1815   1.439       .  S
C832        N834   1.156       .  T
C835        C836   1.403       .  A
C835        C840   1.421       .  A
C836        C837   1.403       .  A
C836        H841   1.085       .  S
C837        C838   1.418       .  A
C837        C844   1.435       .  S
C838        C839   1.410       .  A
C839        C840   1.403       .  A
C839        H842   1.083       .  S
C840        C843   1.445       .  S
C843        N845   1.157       .  T
C844        N846   1.155       .  T
C847       C1838   1.408       .  A
C847        C852   1.420       .  A
C848       C1837   1.406   1_545  A
C848        C849   1.397       .  A
C848        H853   1.085       .  S
C849        C850   1.414       .  A
C849        C856   1.446       .  S
C850        C851   1.404       .  A
C851       C1842   1.405   1_545  A
C851        H854   1.083       .  S
C852       C1841   1.404       .  A
C852        C855   1.444       .  S
C855        N857   1.157       .  T
C856        N858   1.157       .  T
C859        C860   1.410       .  A
C859        C864   1.424       .  A
C860        C861   1.408       .  A
C860        H865   1.084       .  S
C861        C862   1.412       .  A
C861        C868   1.443       .  S
C862        C863   1.399       .  A
C863        C864   1.396       .  A
C863        H866   1.086       .  S
C864        C867   1.447       .  S
C867        N869   1.158       .  T
C868        N870   1.157       .  T
C871       C1862   1.409       .  A
C871        C876   1.414       .  A
C872       C1861   1.405       .  A
C872        C873   1.409   1_565  A
C872       H1867   1.085       .  S
C873        C874   1.420       .  A
C873        C880   1.442       .  S
C874        C875   1.409       .  A
C875       C1866   1.400       .  A
C875        H878   1.083       .  S
C876       C1865   1.401       .  A
C876        C879   1.445       .  S
H877       C1862   1.085       .  S
C879        N881   1.157       .  T
C880        N882   1.157       .  T
C883        C884   1.416       .  A
C883        C888   1.407       .  A
C884        C885   1.392       .  A
C884        H889   1.077       .  S
C885        C886   1.400       .  A
C885        C892   1.445       .  S
C886        C887   1.410       .  A
C887        C888   1.399       .  A
C887        H890   1.084       .  S
C888        C891   1.444       .  S
C891        N893   1.157       .  T
C892        N894   1.157       .  T
C895        C896   1.417       .  A
C895        C900   1.411       .  A
C896        C897   1.395       .  A
C896        H901   1.078       .  S
C897        C898   1.404       .  A
C897        C904   1.445       .  S
C898        C899   1.410       .  A
C899        C900   1.402       .  A
C899        H902   1.085       .  S
C900        C903   1.444       .  S
C903        N905   1.157       .  T
C904        N906   1.157       .  T
C907        C908   1.419       .  A
C907        C912   1.412       .  A
C908        C909   1.396       .  A
C908        H913   1.078       .  S
C909        C910   1.403       .  A
C909        C916   1.444       .  S
C910        C911   1.410       .  A
C911        C912   1.399       .  A
C911        H914   1.085       .  S
C912        C915   1.444       .  S
C915        N917   1.157       .  T
C916        N918   1.157       .  T
C919        C920   1.406       .  A
C919        C924   1.416       .  A
C920        C921   1.407       .  A
C920        H925   1.085       .  S
C921        C922   1.416       .  A
C921        C928   1.443       .  S
C922        C923   1.405       .  A
C923        C924   1.398       .  A
C923        H926   1.085       .  S
C924        C927   1.446       .  S
C927        N929   1.158       .  T
C928        N930   1.157       .  T
C931        C932   1.406       .  A
C931        C936   1.418       .  A
C932        C933   1.400       .  A
C932        H937   1.085       .  S
C933        C934   1.418       .  A
C933        C940   1.445       .  S
C934        C935   1.409       .  A
C935        C936   1.408       .  A
C935        H938   1.085       .  S
C936        C939   1.444       .  S
C939        N941   1.157       .  T
C940        N942   1.157       .  T
C943        C944   1.400       .  A
C943        C948   1.414   1_545  A
C944        C945   1.397       .  A
C944        H949   1.085       .  S
C945        C946   1.412       .  A
C945        C952   1.445       .  S
C946        C947   1.405   1_545  A
C947        C948   1.410       .  A
C947       H1940   1.084       .  S
C948       C1941   1.443       .  S
H950       C1937   1.084       .  S
C951       C1938   1.443       .  S
C951        N953   1.157       .  T
C952        N954   1.157       .  T
C955        C956   1.415   1_554  A
C955        C960   1.409       .  A
C956        C957   1.395       .  A
C956        H961   1.077       .  S
C957        C958   1.408       .  A
C957        C964   1.444       .  S
C958        C959   1.412       .  A
C959        C960   1.400   1_556  A
C959        H962   1.084       .  S
C963        N965   1.157       .  T
C964        N966   1.157       .  T
C967        C968   1.415   1_554  A
C967       C1962   1.405       .  A
C968        C969   1.393       .  A
C968        H973   1.079   1_455  S
C969       C1960   1.399       .  A
C969        C976   1.445       .  S
C970       C1959   1.395   1_545  A
C970        C971   1.406       .  A
C971        C972   1.404   1_556  A
C971        H974   1.085       .  S
C972       C1957   1.412   1_545  A
C972        C975   1.443       .  S
C976        N978   1.157   1_455  T
C979        C980   1.405   1_545  A
C979        C984   1.397       .  A
C980       C1971   1.404   1_556  A
C980        H985   1.085       .  S
C981       C1970   1.405   1_554  A
C981        C982   1.418       .  A
C981        C988   1.444       .  S
C982        C983   1.418   1_554  A
C983       C1974   1.391       .  A
C983        H986   1.078       .  S
C984       C1973   1.390       .  A
C984        C987   1.446       .  S
C987        N989   1.157       .  T
C991        N992   1.356       .  A
C991        N996   1.364       .  A
C991       C3003   1.480   1_455  S
N992        C993   1.358       .  A
C993        N994   1.355       .  A
C993       C1132   1.467       .  S
N994        C995   1.359       .  A
C995        N996   1.366       .  A
C995       C1073   1.468       .  S
C997        N998   1.355       .  A
C997       N1002   1.366       .  A
C997       C1067   1.482       .  S
N998        C999   1.357       .  A
C999       N1000   1.358       .  A
C999       C1110   1.471       .  S
N1000      C1001   1.363       .  A
C1001      N1002   1.368       .  A
C1001      C3031   1.482   1_455  S
C1003      C1477   1.515   1_565  S
C1003      C1004   1.412       .  A
C1004      C1005   1.407       .  A
C1004      H1009   1.078       .  S
C1005      C1450   1.502       .  S
C1005      C1006   1.411       .  A
C1006      C2987   1.400       .  A
C1006      H2990   1.082       .  S
C1007      C1462   1.486       .  S
C1007      C2986   1.397   1_455  A
C1007      C1998   1.401   1_455  A
C1008      C1997   1.408       .  A
C1008      H2991   1.084       .  S
H1010      C2986   1.083       .  S
H1011      C2988   1.083   1_455  S
O1012     Cr1030   2.011       .  S
O1012      C1020   1.261       .  A
O1013     Cr1030   1.984       .  S
O1013      C1014   1.260       .  A
C1014      C1426   1.499       .  S
C1014      O1015   1.265       .  A
O1015     Cr1031   2.011       .  S
O1016     Cr1031   1.998       .  S
O1016      C1017   1.269       .  A
C1017      C1179   1.466       .  S
C1017      O1018   1.262       .  A
O1018     Cr1032   1.974       .  S
O1019     Cr1032   1.969       .  S
O1019      C1020   1.254       .  A
C1020      C1441   1.476       .  S
O1021     Cr1030   1.981       .  S
O1022     Cr1030   2.010       .  S
O1022      C1023   1.267       .  A
C1023      C2971   1.477       .  S
C1023      O1024   1.260       .  A
O1024     Cr1031   1.992       .  S
O1025     Cr1031   1.967       .  S
O1025      C1026   1.254       .  A
C1026      C1474   1.457       .  S
C1026      O1027   1.260       .  A
O1027     Cr1032   1.975       .  S
O1028      C1029   1.267       .  A
C1029      C1080   1.473       .  S
Cr1030     O1033   1.781       .  S
Cr1031     O1033   1.784       .  S
Cr1032     O1033   1.776       .  S
O1034     Cr1052   1.991       .  S
O1034      C1042   1.259       .  A
O1035     Cr1052   2.013       .  S
O1035      C1036   1.264       .  A
C1036      C1414   1.494       .  S
C1036      O1037   1.256       .  A
O1037     Cr1053   1.968       .  S
O1038     Cr1053   2.007       .  S
O1038      C1039   1.273       .  A
C1039      C1185   1.468       .  S
C1039      O1040   1.267       .  A
O1040     Cr1054   1.984       .  S
O1041     Cr1054   2.006       .  S
O1041      C1042   1.260       .  A
C1042      C1429   1.499       .  S
O1043     Cr1052   2.022       .  S
O1043      C1051   1.273       .  A
O1044     Cr1052   1.989       .  S
O1044      C1045   1.264       .  A
C1045      C1078   1.483       .  S
C1045      O1046   1.267       .  A
O1046     Cr1053   2.013       .  S
O1047     Cr1053   1.962       .  S
O1047      C1048   1.251       .  A
C1048      C1453   1.484       .  S
C1048      O1049   1.255       .  A
O1049     Cr1054   1.995       .  S
O1050     Cr1054   1.990       .  S
O1050      C1051   1.266       .  A
C1051      C2981   1.479       .  S
Cr1052     O1055   1.779       .  S
Cr1053     O1055   1.776       .  S
Cr1054     O1055   1.794       .  S
O1056     Cr1074   2.013       .  S
O1056      C1064   1.265       .  A
O1057     Cr1074   1.980       .  S
O1057      C1058   1.253       .  A
C1058      C1438   1.475       .  S
C1058      O1059   1.259       .  A
O1059     Cr1075   2.011       .  S
O1060     Cr1075   1.995       .  S
O1060      C1061   1.271       .  A
C1061      C1266   1.465       .  S
C1061      O1062   1.265       .  A
O1062     Cr1076   1.984       .  S
O1063     Cr1076   1.971       .  S
O1063      C1064   1.257       .  A
C1064      C1417   1.492       .  S
O1065     Cr1074   1.978       .  S
O1065      C1073   1.261       .  A
O1066     Cr1074   2.033       .  S
C1067      O1068   1.265       .  A
O1069     Cr1075   1.976       .  S
O1069      C1070   1.253       .  A
C1070      C1465   1.464       .  S
C1070      O1071   1.258       .  A
O1071     Cr1076   1.982       .  S
O1072     Cr1076   1.999       .  S
O1072      C1073   1.264       .  A
Cr1074     O1077   1.783       .  S
Cr1075     O1077   1.788       .  S
Cr1076     O1077   1.780       .  S
C1078      N1079   1.367       .  A
C1078      N1083   1.356       .  A
N1079      C1080   1.369       .  A
C1080      N1081   1.359       .  A
N1081      C1082   1.354       .  A
C1082      N1083   1.358       .  A
C1082      C1154   1.467       .  S
C1084      N1085   1.351       .  A
C1084      N1089   1.365       .  A
C1084      C1116   1.470       .  S
N1085      C1086   1.352       .  A
C1086      N1087   1.359       .  A
C1086      C1225   1.465       .  S
N1087      C1088   1.364       .  A
C1088      N1089   1.368       .  A
C1088      C1166   1.484       .  S
C1090      N1091   1.364       .  A
C1090      N3075   1.362       .  A
C1090      C1122   1.492       .  S
N1091      C1092   1.367       .  A
C1092      N3073   1.358       .  A
C1092      C1138   1.470       .  S
N1093      C3072   1.359       .  A
N1093      C1094   1.356       .  A
C1094      N1095   1.362       .  A
C1094      C3183   1.476       .  S
N1095      C3070   1.361       .  A
C1096      C1402   1.500       .  S
C1096      C1097   1.408       .  A
C1096      C1101   1.403       .  A
C1097      C1098   1.404       .  A
C1097      H1102   1.083       .  S
C1098      C1378   1.502       .  S
C1098      C1099   1.409       .  A
C1099      C1100   1.404       .  A
C1099      H1103   1.082       .  S
C1100      C1390   1.500       .  S
C1100      C1101   1.409       .  A
C1101      H1104   1.083       .  S
O1105     Cr1123   1.981       .  S
O1105      C3093   1.257   1_455  A
O1106     Cr1123   2.019       .  S
O1106      C1107   1.265       .  A
C1107      C1366   1.495       .  S
C1107      O1108   1.255       .  A
O1108     Cr1124   1.969       .  S
O1109     Cr1124   1.996       .  S
O1109      C1110   1.268       .  A
C1110      O1111   1.270       .  A
O1111     Cr1125   1.995       .  S
O1112     Cr3105   2.003       .  S
O1112      C1113   1.264       .  A
C1113      C1357   1.475       .  S
C1113      O3085   1.257       .  A
O1114     Cr1123   2.019       .  S
O1114      C1122   1.270       .  A
O1115     Cr1123   1.974       .  S
O1115      C1116   1.260       .  A
C1116      O1117   1.266       .  A
O1117     Cr1124   2.006       .  S
O1118     Cr1124   1.964       .  S
O1118      C1119   1.253       .  A
C1119      C1405   1.475       .  S
C1119      O1120   1.256       .  A
O1120     Cr1125   1.993       .  S
O1121     Cr1125   2.009       .  S
O1121      C1122   1.269       .  A
Cr1123     O1126   1.784       .  S
Cr1124     O1126   1.777       .  S
Cr1125     O3092   2.002       .  S
Cr1125     O1126   1.784       .  S
O1127     Cr1145   1.997       .  S
O1127      C1135   1.260       .  A
O1128     Cr1145   2.004       .  S
O1128      C3109   1.263   1_455  A
C1129      C1345   1.483       .  S
C1129      O3108   1.263       .  A
C1129      O1130   1.255       .  A
O1130     Cr3126   1.963       .  S
O1131     Cr1146   1.992       .  S
O1131      C1132   1.268       .  A
C1132      O1133   1.271       .  A
O1133     Cr1147   1.992       .  S
O1134     Cr1147   2.008       .  S
O1134      C1135   1.264       .  A
C1135      C1369   1.502       .  S
O1136     Cr1145   2.012       .  S
O1136      C1144   1.270       .  A
O1137     Cr1145   1.984       .  S
O1137      C1138   1.262       .  A
C1138      O1139   1.264       .  A
O1139     Cr1146   1.996       .  S
O1140     Cr1146   1.971       .  S
O1140      C1141   1.254       .  A
C1141      C1381   1.477       .  S
C1141      O1142   1.255       .  A
O1142     Cr1147   1.986       .  S
O1143     Cr1147   2.002       .  S
O1143      C1144   1.266       .  A
C1144      C1171   1.483       .  S
Cr1145     O1148   1.782       .  S
Cr1146     O3110   1.966   1_455  S
Cr1146     O1148   1.780       .  S
Cr1147     O1148   1.785       .  S
O1149     Cr1167   1.977       .  S
O1149      C1157   1.254       .  A
O1150     Cr1167   2.020       .  S
O1150      C1151   1.267       .  A
C1151      C1354   1.497       .  S
C1151      O1152   1.251       .  A
O1152     Cr1168   1.943       .  S
O1153     Cr1168   1.994       .  S
O1153      C1154   1.268       .  A
C1154      O1155   1.272       .  A
O1155     Cr1169   1.995       .  S
O1156     Cr1169   2.006       .  S
O1156      C1157   1.262       .  A
C1157      C1342   1.493       .  S
O1158     Cr1167   2.025       .  S
O1158      C1166   1.274       .  A
O1159     Cr1167   1.975       .  S
O1159      C1160   1.259       .  A
C1160      C1173   1.463       .  S
C1160      O1161   1.259       .  A
O1161     Cr1168   1.986       .  S
O1162     Cr1168   1.957       .  S
O1162      C1163   1.250       .  A
C1163      C1393   1.476       .  S
C1163      O1164   1.255       .  A
O1164     Cr1169   1.996       .  S
O1165     Cr1169   1.993       .  S
O1165      C1166   1.268       .  A
Cr1167     O1170   1.781       .  S
Cr1168     O1170   1.775       .  S
Cr1169     O1170   1.786       .  S
C1171      N1172   1.363       .  A
C1171      N1176   1.358       .  A
N1172      C1173   1.368       .  A
C1173      N1174   1.356       .  A
N1174      C1175   1.352       .  A
C1175      N1176   1.359       .  A
C1175      C1247   1.462       .  S
C1177      N1673   1.366   1_554  A
C1177      N1182   1.372       .  A
C1177      C1209   1.487       .  S
N1178      C1672   1.364       .  A
N1178      C1179   1.353       .  A
C1179      N1180   1.352       .  A
N1180      C1676   1.351       .  A
C1181      N1675   1.352   1_554  A
C1181      N1182   1.371       .  A
C1183      N1679   1.354   1_554  A
C1183      N1188   1.365       .  A
C1183      C1253   1.477       .  S
N1184      C1678   1.351       .  A
N1184      C1185   1.351       .  A
C1185      N1186   1.360       .  A
N1186      C1682   1.365       .  A
C1187      N1681   1.365       .  A
C1187      N1188   1.368   1_556  A
C1187      C1215   1.480   1_556  S
C1189      C1306   1.504       .  S
C1189      C1190   1.401       .  A
C1189      C1194   1.415       .  A
C1190      C1191   1.386       .  A
C1190      H1195   1.081       .  S
C1191      C1318   1.476       .  S
C1191      C1192   1.393       .  A
C1192      C1193   1.416       .  A
C1192      H1196   1.080       .  S
C1193      C1333   1.520       .  S
C1193      C1194   1.418       .  A
C1194      H1197   1.075       .  S
O1198     Cr1216   1.992   1_455  S
O1198      C1206   1.257       .  A
O1199     Cr1216   2.002   1_455  S
O1199      C1200   1.255       .  A
C1200      C1282   1.496       .  S
C1200      O1201   1.251       .  A
O1201     Cr3197   1.990   1_455  S
O1202     Cr3197   2.005   1_455  S
O1202      C1203   1.283       .  A
C1203      C3074   1.475       .  S
C1203      O1204   1.274       .  A
O1204     Cr3198   1.999   1_455  S
O1205     Cr3198   1.965   1_455  S
O1205      C1206   1.255       .  A
C1206      C1294   1.495       .  S
O1207     Cr3691   1.994       .  S
O1207      C1710   1.266       .  A
O1208     Cr3691   2.015       .  S
O1208      C1704   1.275       .  A
C1209      O1703   1.275       .  A
C1209      O1210   1.273       .  A
O1210     Cr1217   2.005       .  S
O1211     Cr1217   1.958       .  S
O1211      C1212   1.243       .  A
C1212      C1330   1.493       .  S
C1212      O1213   1.257       .  A
O1213     Cr1218   1.984       .  S
O1214     Cr1218   2.004       .  S
O1214      C1215   1.267       .  A
C1215      O1702   1.265   1_554  A
Cr1216     O3682   2.001   1_554  S
Cr1216     O3683   2.017       .  S
Cr1216     O3199   1.786       .  S
Cr1217     O3181   1.989       .  S
Cr1217     O3182   2.004       .  S
Cr1217     O1219   1.792       .  S
Cr1218     O3184   1.997       .  S
Cr1218     O3185   1.971       .  S
Cr1218     O1219   1.791       .  S
O1219     Cr3196   1.791       .  S
O1220     Cr1238   1.982       .  S
O1220      C1228   1.255       .  A
O1221     Cr1238   2.020       .  S
O1221      C1222   1.267       .  A
C1222      C1297   1.491       .  S
C1222      O1223   1.254       .  A
O1223     Cr1239   1.952       .  S
O1224     Cr1239   2.004       .  S
O1224      C1225   1.272       .  A
C1225      O1226   1.267       .  A
O1226     Cr1240   1.981       .  S
O1227     Cr1240   2.007       .  S
O1227      C1228   1.261       .  A
C1228      C1270   1.489       .  S
O1229     Cr1733   2.030       .  S
O1229      C1732   1.276   1_565  A
O1230     Cr1733   1.968   1_545  S
O1230      C1726   1.258       .  A
C1231      O1725   1.259   1_554  A
C1231      O1232   1.267       .  A
O1232     Cr1239   2.013   1_545  S
O1233      C1234   1.254       .  A
C1234      C1321   1.449       .  S
C1234      O1235   1.254       .  A
O1236     Cr1240   1.984   1_545  S
O1236      C1237   1.260       .  A
C1237      O1724   1.278   1_544  A
Cr1238     O1724   2.030   1_554  S
Cr1238     O1725   1.972   1_564  S
Cr1238     O1241   1.776       .  S
Cr1239     O1241   1.767       .  S
Cr1240     O1241   1.789       .  S
O1242     Cr1260   1.986       .  S
O1242      C1250   1.258       .  A
O1243     Cr1260   1.990       .  S
O1243      C1244   1.254       .  A
C1244      C1273   1.488       .  S
C1244      O1245   1.253       .  A
O1245     Cr1261   1.992       .  S
O1246     Cr1261   1.993       .  S
O1246      C1247   1.274       .  A
C1247      O1248   1.267       .  A
O1248     Cr1262   1.982       .  S
O1249     Cr1262   1.978       .  S
O1249      C1250   1.257       .  A
C1250      C1285   1.486       .  S
O1251     Cr1260   1.976   1_556  S
O1251      C1259   1.262   1_556  A
O1252     Cr1260   2.017   1_556  S
O1252      C1253   1.273   1_556  A
C1253      O1254   1.264       .  A
O1254     Cr1261   1.991       .  S
O1255     Cr1261   1.942       .  S
O1255      C1256   1.245       .  A
C1256      C1309   1.470       .  S
C1256      O1257   1.263       .  A
O1257     Cr1262   2.001       .  S
O1258     Cr1262   2.007       .  S
O1258      C1259   1.267       .  A
C1259      C1268   1.471   1_554  S
Cr1260     O1263   1.784       .  S
Cr1261     O1263   1.786       .  S
Cr1262     O1263   1.787       .  S
C1264      N1760   1.358       .  A
C1264      N1269   1.361   1_556  A
N1265      C1759   1.359       .  A
N1265      C1266   1.354       .  A
C1266      N1267   1.358       .  A
N1267      C1763   1.356       .  A
C1268      N1762   1.359       .  A
C1268      N1269   1.360   1_556  A
C1270      C1271   1.405       .  A
C1270      C1275   1.417       .  A
C1271      C1272   1.403       .  A
C1271      H1276   1.085       .  S
C1272      C1273   1.416       .  A
C1272      C1279   1.442       .  S
C1273      C1274   1.403       .  A
C1274      C1275   1.401       .  A
C1274      H1277   1.085       .  S
C1275      C1278   1.443       .  S
C1278      N1280   1.157       .  T
C1279      N1281   1.156       .  T
C1282      C1283   1.411       .  A
C1282      C1287   1.415   1_554  A
C1283      C1284   1.401       .  A
C1283      H1288   1.084       .  S
C1284      C1285   1.410       .  A
C1284      C1291   1.445       .  S
C1285      C1286   1.406       .  A
C1286      C1287   1.404   1_554  A
C1286      H1289   1.085   1_554  S
C1287      C1290   1.442       .  S
C1290      N1787   1.157       .  T
C1291      N1293   1.157       .  T
N1292      C1785   1.157       .  T
C1294      C1295   1.406       .  A
C1294      C1299   1.417   1_554  A
C1295      C1296   1.395       .  A
C1295      H1300   1.085       .  S
C1296      C1297   1.417       .  A
C1296      C1303   1.446       .  S
C1297      C1298   1.406   1_554  A
C1298      C1299   1.408       .  A
C1298      H1301   1.084       .  S
C1299      C1302   1.442       .  S
C1302      N1799   1.157       .  T
C1303      N1305   1.158       .  T
N1304      C1797   1.157       .  T
C1306      C1307   1.407       .  A
C1306      C1311   1.417       .  A
C1307      C1308   1.392       .  A
C1307      H1312   1.078       .  S
C1308      C1309   1.412       .  A
C1308      C1315   1.448       .  S
C1309      C1310   1.404       .  A
C1310      C1311   1.405       .  A
C1310      H1313   1.085       .  S
C1311      C1314   1.444       .  S
C1314      N1316   1.157       .  T
C1315      N1317   1.157       .  T
C1318      C1319   1.399       .  A
C1318      C1323   1.419       .  A
C1319      C1320   1.400       .  A
C1319      H1324   1.085       .  S
C1320      C1321   1.411       .  A
C1321      C1322   1.381       .  A
C1322      C1323   1.383       .  A
C1322      H1325   1.087       .  S
C1323      C1326   1.431       .  S
C1326      N1328   1.152       .  T
C1327      N1329   1.155   1_545  T
C1330      C1331   1.407       .  A
C1330      C1335   1.424       .  A
C1331      C1332   1.405       .  A
C1331      H1336   1.084       .  S
C1332      C1333   1.415       .  A
C1332      C1339   1.438       .  S
C1333      C1334   1.406       .  A
C1334      C1335   1.402       .  A
C1334      H1337   1.083       .  S
C1335      C1338   1.445       .  S
C1338      N1340   1.157       .  T
C1339      N1341   1.156       .  T
C1342      C1347   1.420       .  A
C1343      C1344   1.398       .  A
C1343      H1348   1.084       .  S
C1344      C1345   1.412       .  A
C1344      C1351   1.445       .  S
C1345      C1346   1.403       .  A
C1346      H1349   1.083       .  S
C1347      C1350   1.445       .  S
C1350      N1352   1.158       .  T
C1351      N1353   1.157       .  T
C1354      C1355   1.411       .  A
C1354      C1359   1.425       .  A
C1355      C1356   1.410       .  A
C1355      H1360   1.084       .  S
C1356      C1357   1.411       .  A
C1356      C1363   1.443       .  S
C1357      C1358   1.394       .  A
C1358      C1359   1.391       .  A
C1358      H1361   1.086       .  S
C1359      C1362   1.445       .  S
C1362      N1364   1.157       .  T
C1363      N1365   1.157       .  T
C1366      C1371   1.414   1_565  A
C1367      C1368   1.412       .  A
C1368      C1369   1.419       .  A
C1368      C1375   1.443       .  S
C1369      C1370   1.406       .  A
C1370      H1373   1.084       .  S
C1371      C1374   1.445       .  S
C1374      N1376   1.157       .  T
C1375      N1377   1.157       .  T
C1378      C1379   1.418       .  A
C1378      C1383   1.411       .  A
C1379      C1380   1.395       .  A
C1379      H1384   1.079       .  S
C1380      C1381   1.403       .  A
C1380      C1387   1.445       .  S
C1381      C1382   1.410       .  A
C1382      C1383   1.400       .  A
C1382      H1385   1.085       .  S
C1383      C1386   1.444       .  S
C1386      N1388   1.157       .  T
C1387      N1389   1.157       .  T
C1390      C1391   1.417       .  A
C1390      C1395   1.410       .  A
C1391      C1392   1.394       .  A
C1391      H1396   1.079       .  S
C1392      C1393   1.405       .  A
C1392      C1399   1.445       .  S
C1393      C1394   1.410       .  A
C1394      C1395   1.400       .  A
C1394      H1397   1.085       .  S
C1395      C1398   1.444       .  S
C1398      N1400   1.157       .  T
C1399      N1401   1.157       .  T
C1402      C1403   1.417       .  A
C1402      C1407   1.410       .  A
C1403      C1404   1.395       .  A
C1403      H1408   1.078       .  S
C1404      C1405   1.403       .  A
C1404      C1411   1.444       .  S
C1405      C1406   1.409       .  A
C1406      C1407   1.401       .  A
C1406      H1409   1.085       .  S
C1407      C1410   1.444       .  S
C1410      N1412   1.157       .  T
C1411      N1413   1.157       .  T
C1414      C1415   1.407       .  A
C1414      C1419   1.416       .  A
C1415      C1416   1.409       .  A
C1415      H1420   1.085       .  S
C1416      C1417   1.416       .  A
C1416      C1423   1.444       .  S
C1417      C1418   1.405       .  A
C1418      C1419   1.401       .  A
C1418      H1421   1.085       .  S
C1419      C1422   1.445       .  S
C1422      N1424   1.157       .  T
C1423      N1425   1.157       .  T
C1426      C1427   1.408       .  A
C1426      C1431   1.418       .  A
C1427      C1428   1.404       .  A
C1427      H1432   1.085       .  S
C1428      C1429   1.419       .  A
C1428      C1435   1.445       .  S
C1429      C1430   1.407       .  A
C1430      C1431   1.404       .  A
C1430      H1433   1.085       .  S
C1431      C1434   1.444       .  S
C1434      N1436   1.157       .  T
C1435      N1437   1.157       .  T
C1438      C1439   1.401       .  A
C1438      C1443   1.411       .  A
C1439      C1440   1.398       .  A
C1439      H1444   1.085       .  S
C1440      C1441   1.412       .  A
C1440      C1447   1.446       .  S
C1441      C1442   1.404       .  A
C1442      C1443   1.407       .  A
C1446      N1448   1.157       .  T
C1447      N1449   1.157       .  T
C1450      C1451   1.414       .  A
C1450      C1455   1.410       .  A
C1451      C1452   1.395       .  A
C1451      H1456   1.078       .  S
C1452      C1453   1.410       .  A
C1452      C1459   1.445       .  S
C1453      C1454   1.412       .  A
C1454      C1455   1.401       .  A
C1454      H1457   1.084       .  S
C1455      C1953   1.445       .  S
C1458      C1950   1.444       .  S
C1458      N1460   1.157       .  T
C1459      N1461   1.157       .  T
C1462      C1463   1.413       .  A
C1463      C1464   1.392       .  A
C1463      H1468   1.081   1_455  S
C1464      C1471   1.445       .  S
C1465      C1466   1.405       .  A
C1466      C1467   1.403       .  A
C1466      H1469   1.085       .  S
C1467      C1470   1.442       .  S
C1470      N1967   1.157       .  T
C1471      N1473   1.157   1_455  T
N1472      C1965   1.157       .  T
C1474      C1475   1.405       .  A
C1474      C1479   1.395       .  A
C1475      H1480   1.085       .  S
C1476      C1477   1.418   1_565  A
C1476      C1483   1.444       .  S
C1477      C1478   1.419       .  A
C1478      H1481   1.079       .  S
C1479      C1482   1.446       .  S
C1482      N1484   1.157       .  T
C1483      N1980   1.157       .  T
N1485      C1978   1.157       .  T
C1486      N1487   1.358       .  A
C1486      N1491   1.365       .  A
C1486      C3498   1.487   1_455  S
N1487      C1488   1.361       .  A
C1488      N1489   1.355       .  A
C1488      C1627   1.470       .  S
N1489      C1490   1.359       .  A
C1490      N1491   1.367       .  A
C1490      C1568   1.471       .  S
C1492      N1493   1.357       .  A
C1492      N1497   1.366       .  A
C1492      C1562   1.482       .  S
N1493      C1494   1.358       .  A
C1494      N1495   1.358       .  A
C1494      C1605   1.473       .  S
N1495      C1496   1.363       .  A
C1496      N1497   1.368       .  A
C1496      C3526   1.482   1_455  S
C1498      C1972   1.507   1_565  S
C1498      C1499   1.409       .  A
C1499      C1500   1.404       .  A
C1499      H1504   1.081       .  S
C1500      C1945   1.503       .  S
C1500      C1501   1.409       .  A
C1501      C3482   1.405       .  A
C1501      H3485   1.083       .  S
C1502      C1957   1.500       .  S
C1502      C3481   1.404   1_455  A
C1502      C2493   1.406   1_455  A
C1503      C2492   1.404       .  A
C1503      H3486   1.084       .  S
H1505      C3481   1.083       .  S
H1506      C3483   1.083   1_455  S
O1507     Cr1525   2.016       .  S
O1507      C1515   1.262       .  A
O1508     Cr1525   1.978       .  S
O1508      C1509   1.257       .  A
C1509      C1921   1.495       .  S
C1509      O1510   1.266       .  A
O1510     Cr1526   2.008       .  S
O1511     Cr1526   2.002       .  S
O1511      C1512   1.270       .  A
C1512      C1674   1.469       .  S
C1512      O1513   1.263       .  A
O1513     Cr1527   1.975       .  S
O1514     Cr1527   1.968       .  S
O1514      C1515   1.254       .  A
C1515      C1936   1.479       .  S
O1516     Cr1525   1.967       .  S
O1517     Cr1525   2.022       .  S
O1517      C1518   1.270       .  A
C1518      C3466   1.487       .  S
C1518      O1519   1.261       .  A
O1519     Cr1526   1.997       .  S
O1520     Cr1526   1.965       .  S
O1520      C1521   1.254       .  A
C1521      C1969   1.462       .  S
C1521      O1522   1.261       .  A
O1522     Cr1527   1.978       .  S
O1523      C1524   1.267       .  A
C1524      C1575   1.471       .  S
Cr1525     O1528   1.784       .  S
Cr1526     O1528   1.783       .  S
Cr1527     O1528   1.776       .  S
O1529     Cr1547   1.993       .  S
O1529      C1537   1.259       .  A
O1530     Cr1547   2.016       .  S
O1530      C1531   1.265       .  A
C1531      C1909   1.495       .  S
C1531      O1532   1.257       .  A
O1532     Cr1548   1.971       .  S
O1533     Cr1548   2.004       .  S
O1533      C1534   1.272       .  A
C1534      C1680   1.472       .  S
C1534      O1535   1.269       .  A
O1535     Cr1549   1.990       .  S
O1536     Cr1549   1.997       .  S
O1536      C1537   1.258       .  A
C1537      C1924   1.495       .  S
O1538     Cr1547   2.026       .  S
O1538      C1546   1.274       .  A
O1539     Cr1547   1.992       .  S
O1539      C1540   1.265       .  A
C1540      C1573   1.486       .  S
C1540      O1541   1.267       .  A
O1541     Cr1548   2.015       .  S
O1542     Cr1548   1.966       .  S
O1542      C1543   1.254       .  A
C1543      C1948   1.478       .  S
C1543      O1544   1.253       .  A
O1544     Cr1549   1.983       .  S
O1545     Cr1549   1.989       .  S
O1545      C1546   1.265       .  A
C1546      C3476   1.481       .  S
Cr1547     O1550   1.782       .  S
Cr1548     O1550   1.775       .  S
Cr1549     O1550   1.792       .  S
O1551     Cr1569   2.010       .  S
O1551      C1559   1.264       .  A
O1552     Cr1569   1.985       .  S
O1552      C1553   1.254       .  A
C1553      C1933   1.478       .  S
C1553      O1554   1.259       .  A
O1554     Cr1570   2.012       .  S
O1555     Cr1570   1.998       .  S
O1555      C1556   1.273       .  A
C1556      C1761   1.468       .  S
C1556      O1557   1.266       .  A
O1557     Cr1571   1.990       .  S
O1558     Cr1571   1.975       .  S
O1558      C1559   1.259       .  A
C1559      C1912   1.494       .  S
O1560     Cr1569   1.985       .  S
O1560      C1568   1.263       .  A
O1561     Cr1569   2.027       .  S
C1562      O1563   1.265       .  A
O1564     Cr1570   1.980       .  S
O1564      C1565   1.252       .  A
C1565      C1960   1.466       .  S
C1565      O1566   1.258       .  A
O1566     Cr1571   1.987       .  S
O1567     Cr1571   1.995       .  S
O1567      C1568   1.263       .  A
Cr1569     O1572   1.784       .  S
Cr1570     O1572   1.789       .  S
Cr1571     O1572   1.779       .  S
C1573      N1574   1.368       .  A
C1573      N1578   1.356       .  A
N1574      C1575   1.370       .  A
C1575      N1576   1.357       .  A
N1576      C1577   1.351       .  A
C1577      N1578   1.360       .  A
C1577      C1649   1.464       .  S
C1579      N1580   1.349       .  A
C1579      N1584   1.362       .  A
C1579      C1611   1.464       .  S
N1580      C1581   1.351       .  A
C1581      N1582   1.362       .  A
C1581      C1720   1.469       .  S
N1582      C1583   1.367       .  A
C1583      N1584   1.365       .  A
C1583      C1661   1.484       .  S
C1585      N1586   1.366       .  A
C1585      N3570   1.360       .  A
C1585      C1617   1.492       .  S
N1586      C1587   1.370       .  A
C1587      N3568   1.359       .  A
C1587      C1633   1.477       .  S
N1588      C3567   1.359       .  A
N1588      C1589   1.356       .  A
C1589      N1590   1.362       .  A
C1589      C3678   1.473       .  S
N1590      C3565   1.360       .  A
C1591      C1897   1.499       .  S
C1591      C1592   1.409       .  A
C1591      C1596   1.403       .  A
C1592      C1593   1.403       .  A
C1592      H1597   1.083       .  S
C1593      C1873   1.501       .  S
C1593      C1594   1.408       .  A
C1594      C1595   1.404       .  A
C1594      H1598   1.083       .  S
C1595      C1885   1.501       .  S
C1595      C1596   1.410       .  A
C1596      H1599   1.082       .  S
O1600     Cr1618   1.977       .  S
O1600      C3588   1.256   1_455  A
O1601     Cr1618   2.020       .  S
O1601      C1602   1.267       .  A
C1602      C1861   1.491       .  S
C1602      O1603   1.255       .  A
O1603     Cr1619   1.963       .  S
O1604     Cr1619   1.998       .  S
O1604      C1605   1.267       .  A
C1605      O1606   1.270       .  A
O1606     Cr1620   1.997       .  S
O1607     Cr3600   2.004       .  S
O1607      C1608   1.264       .  A
C1608      C1852   1.477       .  S
C1608      O3580   1.256       .  A
O1609     Cr1618   2.022       .  S
O1609      C1617   1.271       .  A
O1610     Cr1618   1.969       .  S
O1610      C1611   1.259       .  A
C1611      O1612   1.265       .  A
O1612     Cr1619   2.003       .  S
O1613     Cr1619   1.961       .  S
O1613      C1614   1.253       .  A
C1614      C1900   1.473       .  S
C1614      O1615   1.257       .  A
O1615     Cr1620   1.989       .  S
O1616     Cr1620   2.007       .  S
O1616      C1617   1.266       .  A
Cr1618     O1621   1.783       .  S
Cr1619     O1621   1.776       .  S
Cr1620     O3587   2.005       .  S
Cr1620     O1621   1.783       .  S
O1622     Cr1640   1.999       .  S
O1622      C1630   1.259       .  A
O1623     Cr1640   2.010       .  S
O1623      C3604   1.265   1_455  A
C1624      C1840   1.485       .  S
C1624      O3603   1.264       .  A
C1624      O1625   1.255       .  A
O1625     Cr3621   1.962       .  S
O1626     Cr1641   1.993       .  S
O1626      C1627   1.267       .  A
C1627      O1628   1.272       .  A
O1628     Cr1642   1.997       .  S
O1629     Cr1642   2.011       .  S
O1629      C1630   1.264       .  A
C1630      C1864   1.505       .  S
O1631     Cr1640   2.016       .  S
O1631      C1639   1.272       .  A
O1632     Cr1640   1.992       .  S
O1632      C1633   1.263       .  A
C1633      O1634   1.263       .  A
O1634     Cr1641   1.998       .  S
O1635     Cr1641   1.968       .  S
O1635      C1636   1.254       .  A
C1636      C1876   1.475       .  S
C1636      O1637   1.255       .  A
O1637     Cr1642   1.988       .  S
O1638     Cr1642   2.002       .  S
O1638      C1639   1.266       .  A
C1639      C1666   1.485       .  S
Cr1640     O1643   1.782       .  S
Cr1641     O3605   1.963       .  S
Cr1641     O1643   1.778       .  S
Cr1642     O1643   1.787       .  S
O1644     Cr1662   1.986       .  S
O1644      C1652   1.255       .  A
O1645     Cr1662   2.013       .  S
O1645      C1646   1.266       .  A
C1646      C1849   1.495       .  S
C1646      O1647   1.251       .  A
O1647     Cr1663   1.947       .  S
O1648     Cr1663   1.984       .  S
O1648      C1649   1.266       .  A
C1649      O1650   1.275       .  A
O1650     Cr1664   2.000       .  S
O1651     Cr1664   1.998       .  S
O1651      C1652   1.258       .  A
C1652      C1837   1.490       .  S
O1653     Cr1662   2.023       .  S
O1653      C1661   1.274       .  A
O1654     Cr1662   1.983       .  S
O1654      C1655   1.261       .  A
C1655      C1668   1.466       .  S
C1655      O1656   1.257       .  A
O1656     Cr1663   1.978       .  S
O1657     Cr1663   1.957       .  S
O1657      C1658   1.249       .  A
C1658      C1888   1.477       .  S
C1658      O1659   1.253       .  A
O1659     Cr1664   1.992       .  S
O1660     Cr1664   1.996       .  S
O1660      C1661   1.271       .  A
Cr1662     O1665   1.782       .  S
Cr1663     O1665   1.779       .  S
Cr1664     O1665   1.786       .  S
C1666      N1667   1.364       .  A
C1666      N1671   1.355       .  A
N1667      C1668   1.370       .  A
C1668      N1669   1.356       .  A
N1669      C1670   1.352       .  A
C1670      N1671   1.358       .  A
C1670      C1742   1.459       .  S
C1672      N1677   1.372       .  A
C1672      C1704   1.485       .  S
N1673      C1674   1.356       .  A
C1674      N1675   1.354       .  A
C1676      N1677   1.371       .  A
C1678      N1683   1.365       .  A
C1678      C1748   1.473       .  S
N1679      C1680   1.354       .  A
C1680      N1681   1.360       .  A
C1682      N1683   1.368       .  A
C1682      C1710   1.481       .  S
C1684      C1801   1.503       .  S
C1684      C1685   1.400       .  A
C1684      C1689   1.415       .  A
C1685      C1686   1.387       .  A
C1685      H1690   1.081       .  S
C1686      C1813   1.476       .  S
C1686      C1687   1.394       .  A
C1687      C1688   1.416       .  A
C1687      H1691   1.081       .  S
C1688      C1828   1.521       .  S
C1688      C1689   1.418       .  A
C1689      H1692   1.075       .  S
O1693     Cr1711   1.984   1_455  S
O1693      C1701   1.255       .  A
O1694     Cr1711   2.002   1_455  S
O1694      C1695   1.254       .  A
C1695      C1777   1.490       .  S
C1695      O1696   1.252       .  A
O1696     Cr3692   1.987   1_455  S
O1697     Cr3692   2.001   1_455  S
O1697      C1698   1.280       .  A
C1698      C3569   1.474       .  S
C1698      O1699   1.274       .  A
O1699     Cr3693   1.999   1_455  S
O1700     Cr3693   1.971   1_455  S
O1700      C1701   1.256       .  A
C1701      C1789   1.493       .  S
O1702     Cr3196   1.991   1_556  S
O1703     Cr3196   2.019       .  S
C1704      O1705   1.273       .  A
O1705     Cr1712   2.005       .  S
O1706     Cr1712   1.962       .  S
O1706      C1707   1.243       .  A
C1707      C1825   1.493       .  S
C1707      O1708   1.257       .  A
O1708     Cr1713   1.983       .  S
O1709     Cr1713   2.004       .  S
O1709      C1710   1.267       .  A
Cr1711     O3187   1.990       .  S
Cr1711     O3188   2.013       .  S
Cr1711     O3694   1.790       .  S
Cr1712     O3676   1.988       .  S
Cr1712     O3677   2.000       .  S
Cr1712     O1714   1.792       .  S
Cr1713     O3679   1.998       .  S
Cr1713     O3680   1.972       .  S
Cr1713     O1714   1.787       .  S
O1714     Cr3691   1.789       .  S
O1715     Cr1733   1.984       .  S
O1715      C1723   1.257       .  A
O1716     Cr1733   2.028       .  S
O1716      C1717   1.267       .  A
C1717      C1792   1.484       .  S
C1717      O1718   1.251       .  A
O1718     Cr1734   1.944       .  S
O1719     Cr1734   2.004       .  S
O1719      C1720   1.272       .  A
C1720      O1721   1.265       .  A
O1721     Cr1735   1.983       .  S
O1722     Cr1735   2.011       .  S
O1722      C1723   1.266       .  A
C1723      C1765   1.497       .  S
C1726      O1727   1.269       .  A
O1727     Cr1734   2.020   1_545  S
O1728      C1729   1.254       .  A
C1729      C1816   1.448       .  S
C1729      O1730   1.254       .  A
O1731     Cr1735   1.986   1_545  S
O1731      C1732   1.259       .  A
Cr1733     O1736   1.776       .  S
Cr1734     O1736   1.766       .  S
Cr1735     O1736   1.786       .  S
O1737     Cr1755   1.995       .  S
O1737      C1745   1.261       .  A
O1738     Cr1755   1.996       .  S
O1738      C1739   1.256       .  A
C1739      C1768   1.495       .  S
C1739      O1740   1.253       .  A
O1740     Cr1756   1.991       .  S
O1741     Cr1756   1.991       .  S
O1741      C1742   1.273       .  A
C1742      O1743   1.266       .  A
O1743     Cr1757   1.978       .  S
O1744     Cr1757   1.966       .  S
O1744      C1745   1.255       .  A
C1745      C1780   1.490       .  S
O1746     Cr1755   1.978       .  S
O1746      C1754   1.262       .  A
O1747     Cr1755   2.019       .  S
O1747      C1748   1.275       .  A
C1748      O1749   1.262       .  A
O1749     Cr1756   1.984       .  S
O1750     Cr1756   1.943       .  S
O1750      C1751   1.246       .  A
C1751      C1804   1.464       .  S
C1751      O1752   1.260       .  A
O1752     Cr1757   1.992       .  S
O1753     Cr1757   2.000       .  S
O1753      C1754   1.264       .  A
C1754      C1763   1.469       .  S
Cr1755     O1758   1.781       .  S
Cr1756     O1758   1.783       .  S
Cr1757     O1758   1.782       .  S
C1759      N1764   1.362       .  A
N1760      C1761   1.353       .  A
C1761      N1762   1.360       .  A
C1763      N1764   1.361       .  A
C1765      C1766   1.406       .  A
C1765      C1770   1.419       .  A
C1766      C1767   1.400       .  A
C1766      H1771   1.084       .  S
C1767      C1768   1.420       .  A
C1767      C1774   1.445       .  S
C1768      C1769   1.406       .  A
C1769      C1770   1.404       .  A
C1769      H1772   1.085       .  S
C1770      C1773   1.443       .  S
C1773      N1775   1.157       .  T
C1774      N1776   1.157       .  T
C1777      C1778   1.406       .  A
C1777      C1782   1.414       .  A
C1778      C1779   1.397       .  A
C1778      H1783   1.085       .  S
C1779      C1780   1.415       .  A
C1779      C1786   1.445       .  S
C1780      C1781   1.408       .  A
C1781      C1782   1.405       .  A
C1781      H1784   1.085       .  S
C1782      C1785   1.442       .  S
C1786      N1788   1.157       .  T
C1789      C1790   1.405       .  A
C1789      C1794   1.419       .  A
C1790      C1791   1.395       .  A
C1790      H1795   1.085       .  S
C1791      C1792   1.415       .  A
C1791      C1798   1.447       .  S
C1792      C1793   1.402       .  A
C1793      C1794   1.406       .  A
C1793      H1796   1.083       .  S
C1794      C1797   1.442       .  S
C1798      N1800   1.157       .  T
C1801      C1802   1.406       .  A
C1801      C1806   1.416       .  A
C1802      C1803   1.389       .  A
C1802      H1807   1.073       .  S
C1803      C1804   1.409       .  A
C1803      C1810   1.448       .  S
C1804      C1805   1.403       .  A
C1805      C1806   1.404       .  A
C1805      H1808   1.085       .  S
C1806      C1809   1.442       .  S
C1809      N1811   1.156       .  T
C1810      N1812   1.157       .  T
C1813      C1814   1.399       .  A
C1813      C1818   1.419       .  A
C1814      C1815   1.399       .  A
C1814      H1819   1.085       .  S
C1815      C1816   1.411       .  A
C1816      C1817   1.381       .  A
C1817      C1818   1.383       .  A
C1817      H1820   1.087       .  S
C1818      C1821   1.432       .  S
C1821      N1823   1.152       .  T
C1822      N1824   1.157       .  T
C1825      C1826   1.405       .  A
C1825      C1830   1.423       .  A
C1826      C1827   1.403       .  A
C1826      H1831   1.084       .  S
C1827      C1828   1.417       .  A
C1827      C1834   1.437       .  S
C1828      C1829   1.407       .  A
C1829      C1830   1.403       .  A
C1829      H1832   1.084       .  S
C1830      C1833   1.445       .  S
C1833      N1835   1.157       .  T
C1834      N1836   1.155       .  T
C1837      C1842   1.416       .  A
C1838      C1839   1.400       .  A
C1838      H1843   1.084       .  S
C1839      C1840   1.413       .  A
C1839      C1846   1.445       .  S
C1840      C1841   1.403       .  A
C1841      H1844   1.084       .  S
C1842      C1845   1.444       .  S
C1845      N1847   1.157       .  T
C1846      N1848   1.157       .  T
C1849      C1850   1.409       .  A
C1849      C1854   1.425       .  A
C1850      C1851   1.406       .  A
C1850      H1855   1.084       .  S
C1851      C1852   1.411       .  A
C1851      C1858   1.443       .  S
C1852      C1853   1.397       .  A
C1853      C1854   1.395       .  A
C1853      H1856   1.086       .  S
C1854      C1857   1.446       .  S
C1857      N1859   1.157       .  T
C1858      N1860   1.157       .  T
C1861      C1866   1.414   1_565  A
C1862      C1863   1.413       .  A
C1863      C1864   1.420       .  A
C1863      C1870   1.444       .  S
C1864      C1865   1.407       .  A
C1865      H1868   1.082       .  S
C1866      C1869   1.445       .  S
C1869      N1871   1.157       .  T
C1870      N1872   1.157       .  T
C1873      C1874   1.418       .  A
C1873      C1878   1.410       .  A
C1874      C1875   1.394       .  A
C1874      H1879   1.078       .  S
C1875      C1876   1.402       .  A
C1875      C1882   1.445       .  S
C1876      C1877   1.410       .  A
C1877      C1878   1.401       .  A
C1877      H1880   1.085       .  S
C1878      C1881   1.444       .  S
C1881      N1883   1.157       .  T
C1882      N1884   1.157       .  T
C1885      C1886   1.417       .  A
C1885      C1890   1.410       .  A
C1886      C1887   1.394       .  A
C1886      H1891   1.079       .  S
C1887      C1888   1.405       .  A
C1887      C1894   1.445       .  S
C1888      C1889   1.410       .  A
C1889      C1890   1.400       .  A
C1889      H1892   1.085       .  S
C1890      C1893   1.444       .  S
C1893      N1895   1.157       .  T
C1894      N1896   1.157       .  T
C1897      C1898   1.418       .  A
C1897      C1902   1.409       .  A
C1898      C1899   1.396       .  A
C1898      H1903   1.079       .  S
C1899      C1900   1.403       .  A
C1899      C1906   1.444       .  S
C1900      C1901   1.408       .  A
C1901      C1902   1.398       .  A
C1901      H1904   1.085       .  S
C1902      C1905   1.443       .  S
C1905      N1907   1.157       .  T
C1906      N1908   1.157       .  T
C1909      C1910   1.408       .  A
C1909      C1914   1.415       .  A
C1910      C1911   1.411       .  A
C1910      H1915   1.085       .  S
C1911      C1912   1.417       .  A
C1911      C1918   1.444       .  S
C1912      C1913   1.405       .  A
C1913      C1914   1.401       .  A
C1913      H1916   1.085       .  S
C1914      C1917   1.444       .  S
C1917      N1919   1.157       .  T
C1918      N1920   1.158       .  T
C1921      C1922   1.405       .  A
C1921      C1926   1.419       .  A
C1922      C1923   1.399       .  A
C1922      H1927   1.085       .  S
C1923      C1924   1.419       .  A
C1923      C1930   1.445       .  S
C1924      C1925   1.407       .  A
C1925      C1926   1.405       .  A
C1925      H1928   1.085       .  S
C1926      C1929   1.445       .  S
C1929      N1931   1.158       .  T
C1930      N1932   1.157       .  T
C1933      C1934   1.400       .  A
C1933      C1938   1.413       .  A
C1934      C1935   1.398       .  A
C1934      H1939   1.085       .  S
C1935      C1936   1.412       .  A
C1935      C1942   1.446       .  S
C1936      C1937   1.405       .  A
C1937      C1938   1.409       .  A
C1941      N1943   1.157       .  T
C1942      N1944   1.157       .  T
C1945      C1946   1.417   1_554  A
C1945      C1950   1.411       .  A
C1946      C1947   1.391       .  A
C1946      H1951   1.075       .  S
C1947      C1948   1.403       .  A
C1947      C1954   1.444       .  S
C1948      C1949   1.412       .  A
C1949      C1950   1.401   1_556  A
C1949      H1952   1.085       .  S
C1953      N1955   1.157       .  T
C1954      N1956   1.157       .  T
C1957      C1958   1.418   1_554  A
C1958      C1959   1.390       .  A
C1958      H1963   1.076   1_455  S
C1959      C1966   1.446       .  S
C1960      C1961   1.410       .  A
C1961      C1962   1.404   1_556  A
C1961      H1964   1.085       .  S
C1962      C1965   1.442       .  S
C1966      N1968   1.157       .  T
C1969      C1970   1.405       .  A
C1969      C1974   1.398       .  A
C1970      H1975   1.085       .  S
C1971      C1972   1.416   1_565  A
C1971      C1978   1.444       .  S
C1972      C1973   1.418   1_554  A
C1973      H1976   1.077       .  S
C1974      C1977   1.445       .  S
C1977      N1979   1.157       .  T
C1981      N1982   1.357       .  A
C1981      N1986   1.367       .  A
N1982      C1983   1.359       .  A
C1983      N1984   1.357       .  A
C1983      C2122   1.473       .  S
N1984      C1985   1.361       .  A
C1985      N1986   1.369       .  A
C1985      C2063   1.480       .  S
C1987      N1988   1.357       .  A
C1987      N1992   1.366       .  A
C1987      C2057   1.486       .  S
N1988      C1989   1.360       .  A
C1989      N1990   1.357       .  A
C1989      C2100   1.472       .  S
N1990      C1991   1.362       .  A
C1991      N1992   1.368       .  A
C1993      C2467   1.509       .  S
C1993      C1994   1.409       .  A
C1993      C2988   1.406       .  A
C1994      C1995   1.406       .  A
C1994      H1999   1.080       .  S
C1995      C2440   1.502       .  S
C1995      C1996   1.411       .  A
C1997      C2452   1.499       .  S
C1998      C2983   1.409       .  A
O2002     Cr2020   2.008       .  S
O2002      C2010   1.260       .  A
O2003     Cr2020   1.991       .  S
O2003      C2004   1.258       .  A
C2004      C2416   1.499       .  S
C2004      O2005   1.262       .  A
O2005     Cr2021   2.003       .  S
O2006     Cr2021   2.004       .  S
O2006      C2007   1.272       .  A
C2007      C2169   1.468       .  S
C2007      O2008   1.262       .  A
O2008     Cr2022   1.970       .  S
O2009     Cr2022   1.973       .  S
O2009      C2010   1.254       .  A
C2010      C2431   1.478       .  S
O2011     Cr2020   1.977       .  S
O2011      C3009   1.262   1_545  A
O2012     Cr2020   2.022       .  S
O2012      C2013   1.270       .  A
C2013      O2014   1.263       .  A
O2014     Cr2021   1.997       .  S
O2015     Cr2021   1.960       .  S
O2015      C2016   1.252       .  A
C2016      C2464   1.469       .  S
C2016      O2017   1.262   1_545  A
O2017     Cr2022   1.986   1_565  S
O2018     Cr3012   2.016       .  S
O2018      C2019   1.268       .  A
C2019      C2070   1.472       .  S
C2019      O3001   1.262       .  A
Cr2020     O2023   1.787       .  S
Cr2021     O2023   1.786       .  S
Cr2022     O3008   2.011   1_545  S
Cr2022     O2023   1.782       .  S
O2024     Cr2042   1.993       .  S
O2024      C2032   1.259       .  A
O2025     Cr2042   2.011       .  S
O2025      C2026   1.264       .  A
C2026      C2404   1.486       .  S
C2026      O2027   1.255       .  A
O2027     Cr2043   1.962       .  S
O2028     Cr2043   2.000       .  S
O2028      C2029   1.270       .  A
C2029      C2175   1.464       .  S
C2029      O2030   1.267       .  A
O2030     Cr2044   1.984       .  S
O2031     Cr2044   2.002       .  S
O2031      C2032   1.260       .  A
C2032      C2419   1.499       .  S
O2033     Cr2042   2.025       .  S
O2033      C2041   1.273       .  A
O2034     Cr2042   1.987       .  S
O2034      C2035   1.264       .  A
C2035      C2068   1.478       .  S
C2035      O2036   1.266       .  A
O2036     Cr2043   2.010       .  S
O2037     Cr2043   1.960       .  S
O2037      C2038   1.252       .  A
C2038      C2443   1.479       .  S
C2038      O2039   1.255       .  A
O2039     Cr2044   1.990       .  S
O2040     Cr2044   1.988       .  S
O2040      C2041   1.264       .  A
Cr2042     O2045   1.777       .  S
Cr2043     O2045   1.774       .  S
Cr2044     O2045   1.789       .  S
O2046     Cr2064   2.005       .  S
O2046      C2054   1.263       .  A
O2047     Cr2064   1.990       .  S
O2047      C2048   1.254       .  A
C2048      C2428   1.479       .  S
C2048      O2049   1.256   1_545  A
O2049     Cr2065   2.005   1_565  S
O2050     Cr2065   1.993       .  S
O2050      C2051   1.271       .  A
C2051      C2256   1.468       .  S
C2051      O2052   1.271       .  A
O2052     Cr2066   1.997       .  S
O2053     Cr2066   1.971       .  S
O2053      C2054   1.258       .  A
C2054      C2407   1.490       .  S
O2055     Cr2064   1.987       .  S
O2055      C2063   1.263       .  A
O2056     Cr2064   2.028   1_565  S
O2056      C3047   1.276       .  A
C2057      O3046   1.275       .  A
C2057      O2058   1.264       .  A
O2058     Cr3055   1.993       .  S
O2059     Cr2065   1.977       .  S
O2059      C2060   1.250       .  A
C2060      C2455   1.462       .  S
C2060      O2061   1.256       .  A
O2061     Cr2066   1.983       .  S
O2062     Cr2066   2.007       .  S
O2062      C2063   1.265       .  A
Cr2064     O2067   1.781       .  S
Cr2065     O3048   1.987   1_545  S
Cr2065     O2067   1.791       .  S
Cr2066     O2067   1.777       .  S
C2068      N2069   1.366       .  A
C2068      N2073   1.355       .  A
N2069      C2070   1.368       .  A
C2070      N2071   1.359       .  A
N2071      C2072   1.356       .  A
C2072      N2073   1.357       .  A
C2072      C2144   1.466       .  S
C2074      N2075   1.350       .  A
C2074      N2079   1.363       .  A
C2074      C2106   1.468       .  S
N2075      C2076   1.353       .  A
C2076      N2077   1.358       .  A
C2076      C2215   1.462       .  S
N2077      C2078   1.364       .  A
C2078      N2079   1.366       .  A
C2078      C2156   1.478       .  S
C2080      N2081   1.368       .  A
C2080      C2112   1.500       .  S
N2081      C2082   1.372       .  A
C2082      C2128   1.475       .  S
N2083      C2084   1.355       .  A
C2084      N2085   1.362       .  A
C2086      C2392   1.500       .  S
C2086      C2087   1.409       .  A
C2086      C2091   1.402       .  A
C2087      C2088   1.403       .  A
C2087      H2092   1.083       .  S
C2088      C2368   1.496       .  S
C2088      C2089   1.408       .  A
C2089      C2090   1.404       .  A
C2089      H2093   1.083       .  S
C2090      C2380   1.502       .  S
C2090      C2091   1.409       .  A
C2091      H2094   1.082       .  S
O2095     Cr2113   1.982       .  S
O2096     Cr2113   2.025       .  S
O2096      C2097   1.267       .  A
C2097      C2356   1.497       .  S
C2097      O2098   1.255       .  A
O2098     Cr2114   1.967       .  S
O2099     Cr2114   1.993       .  S
O2099      C2100   1.267       .  A
C2100      O2101   1.272       .  A
O2101     Cr2115   1.999       .  S
O2102      C2103   1.263   1_455  A
C2103      C2347   1.481       .  S
O2104     Cr2113   2.028       .  S
O2104      C2112   1.273       .  A
O2105     Cr2113   1.976       .  S
O2105      C2106   1.260       .  A
C2106      O2107   1.264       .  A
O2107     Cr2114   1.997       .  S
O2108     Cr2114   1.961       .  S
O2108      C2109   1.252       .  A
C2109      C2395   1.475       .  S
C2109      O2110   1.256       .  A
O2110     Cr2115   1.987       .  S
O2111     Cr2115   2.013       .  S
O2111      C2112   1.268       .  A
Cr2113     O2116   1.784       .  S
Cr2114     O2116   1.780       .  S
Cr2115     O2116   1.785       .  S
O2117     Cr2135   2.000       .  S
O2117      C2125   1.262       .  A
O2118     Cr2135   2.010       .  S
C2119      C2335   1.481       .  S
C2119      O2120   1.254       .  A
O2121     Cr2136   1.996       .  S
O2121      C2122   1.267       .  A
C2122      O2123   1.271       .  A
O2123     Cr2137   1.996       .  S
O2124     Cr2137   2.013       .  S
O2124      C2125   1.266       .  A
C2125      C2359   1.506       .  S
O2126     Cr2135   2.012       .  S
O2126      C2134   1.270       .  A
O2127     Cr2135   1.991       .  S
O2127      C2128   1.263       .  A
C2128      O2129   1.263       .  A
O2129     Cr2136   2.000       .  S
O2130     Cr2136   1.964       .  S
O2130      C2131   1.253       .  A
C2131      C2371   1.470       .  S
C2131      O2132   1.256       .  A
O2132     Cr2137   1.989       .  S
O2133     Cr2137   2.004       .  S
O2133      C2134   1.265       .  A
C2134      C2161   1.485       .  S
Cr2135     O2138   1.781       .  S
Cr2136     O2138   1.778       .  S
Cr2137     O2138   1.785       .  S
O2139     Cr2157   1.986       .  S
O2139      C2147   1.257       .  A
O2140     Cr2157   2.018       .  S
O2140      C2141   1.267       .  A
C2141      C2344   1.495       .  S
C2141      O2142   1.251       .  A
O2142     Cr2158   1.946       .  S
O2143     Cr2158   1.997       .  S
O2143      C2144   1.269       .  A
C2144      O2145   1.270       .  A
O2145     Cr2159   1.991       .  S
O2146     Cr2159   2.009       .  S
O2146      C2147   1.263       .  A
C2147      C2332   1.497       .  S
O2148     Cr2157   2.018       .  S
O2148      C2156   1.272       .  A
O2149     Cr2157   1.983       .  S
O2149      C2150   1.261       .  A
C2150      C2163   1.473       .  S
C2150      O2151   1.262       .  A
O2151     Cr2158   1.996       .  S
O2152     Cr2158   1.958       .  S
O2152      C2153   1.250       .  A
C2153      C2383   1.477       .  S
C2153      O2154   1.257       .  A
O2154     Cr2159   2.000       .  S
O2155     Cr2159   1.991       .  S
O2155      C2156   1.267       .  A
Cr2157     O2160   1.780       .  S
Cr2158     O2160   1.772       .  S
Cr2159     O2160   1.784       .  S
C2161      N2162   1.365       .  A
C2161      N2166   1.355       .  A
N2162      C2163   1.370       .  A
C2163      N2164   1.360       .  A
N2164      C2165   1.355       .  A
C2165      N2166   1.356       .  A
C2165      C2237   1.464       .  S
C2167      N2663   1.366   1_554  A
C2167      N2172   1.373       .  A
C2167      C2199   1.490       .  S
N2168      C2662   1.365       .  A
N2168      C2169   1.354       .  A
C2169      N2170   1.355       .  A
N2170      C2666   1.352       .  A
C2171      N2665   1.351   1_554  A
C2171      N2172   1.372       .  A
C2171      C3217   1.485       .  S
C2173      N2669   1.351       .  A
C2173      N2178   1.365   1_556  A
C2173      C2243   1.471   1_556  S
N2174      C2668   1.352       .  A
N2174      C2175   1.352       .  A
C2175      N2176   1.357       .  A
N2176      C2672   1.362       .  A
C2177      N2671   1.361       .  A
C2177      N2178   1.368   1_556  A
C2177      C2205   1.472   1_556  S
C2179      C2296   1.493       .  S
C2179      C2180   1.397       .  A
C2179      C2184   1.414       .  A
C2180      C2181   1.391       .  A
C2180      H2185   1.084       .  S
C2181      C2308   1.480       .  S
C2181      C2182   1.397       .  A
C2182      C2183   1.418       .  A
C2182      H2186   1.082       .  S
C2183      C2323   1.522       .  S
C2183      C2184   1.416       .  A
C2184      H2187   1.076       .  S
O2188     Cr2206   1.992       .  S
O2188      C2196   1.257       .  A
O2189     Cr2206   1.997       .  S
O2189      C2190   1.253       .  A
C2190      C2272   1.486       .  S
C2190      O2191   1.252       .  A
O2192      C2193   1.281       .  A
C2193      O2194   1.271       .  A
O2195      C2196   1.256       .  A
C2196      C2284   1.496       .  S
O2197      C2700   1.266       .  A
O2198      C2694   1.275       .  A
C2199      O2693   1.276       .  A
C2199      O2200   1.274       .  A
O2200     Cr2207   2.010       .  S
O2201     Cr2207   1.972       .  S
O2201      C2202   1.244       .  A
C2202      C2320   1.495       .  S
C2202      O2203   1.255       .  A
O2203     Cr2208   1.967       .  S
O2204     Cr2208   1.998       .  S
O2204      C2205   1.265       .  A
C2205      O2692   1.265   1_554  A
Cr2207     O2209   1.795       .  S
Cr2208     O2209   1.787       .  S
O2210     Cr2228   1.976       .  S
O2210      C2218   1.254       .  A
O2211     Cr2228   2.032       .  S
O2211      C2212   1.269       .  A
C2212      C2287   1.492       .  S
C2212      O2213   1.252       .  A
O2213     Cr2229   1.946       .  S
O2214     Cr2229   1.989       .  S
O2214      C2215   1.269       .  A
C2215      O2216   1.268       .  A
O2216     Cr2230   1.987       .  S
O2217     Cr2230   2.005       .  S
O2217      C2218   1.262       .  A
C2218      C2260   1.490       .  S
O2219     Cr2723   2.037       .  S
O2219      C2722   1.280       .  A
O2220     Cr2723   1.961       .  S
O2220      C2716   1.256       .  A
C2221      C3244   1.461   1_554  S
C2221      O2715   1.256   1_554  A
C2221      O2222   1.266       .  A
O2222     Cr2229   2.009       .  S
O2223     Cr3219   1.963   1_545  S
O2223      C2224   1.253       .  A
C2224      C2311   1.446       .  S
C2224      O2225   1.250   1_545  A
O2225     Cr3220   1.977       .  S
O2226     Cr2230   1.989       .  S
O2226      C2227   1.261       .  A
C2227      C3161   1.488       .  S
C2227      O2714   1.279   1_554  A
Cr2228     O2714   2.037   1_554  S
Cr2228     O2715   1.959   1_554  S
Cr2228     O2231   1.776       .  S
Cr2229     O3213   1.968       .  S
Cr2229     O2231   1.767       .  S
Cr2230     O3215   1.977       .  S
Cr2230     O2231   1.785       .  S
O2232     Cr2250   2.002       .  S
O2232      C2240   1.262       .  A
O2233     Cr2250   1.991       .  S
O2233      C2234   1.257       .  A
C2234      C2263   1.490       .  S
C2234      O2235   1.253       .  A
O2235     Cr2251   1.988       .  S
O2236     Cr2251   1.991       .  S
O2236      C2237   1.272       .  A
C2237      O2238   1.268       .  A
O2238     Cr2252   1.988       .  S
O2239     Cr2252   1.954       .  S
O2239      C2240   1.253       .  A
C2240      C2275   1.488       .  S
O2241     Cr2250   1.981   1_556  S
O2241      C2249   1.262   1_556  A
O2242     Cr2250   2.013   1_556  S
O2242      C2243   1.273   1_556  A
C2243      O2244   1.262       .  A
O2244     Cr2251   1.984       .  S
O2245     Cr2251   1.945       .  S
O2245      C2246   1.247       .  A
C2246      C2299   1.451       .  S
C2246      O2247   1.255       .  A
O2247     Cr2252   1.977       .  S
O2248     Cr2252   2.005       .  S
O2248      C2249   1.265       .  A
C2249      C2258   1.475   1_554  S
Cr2250     O2253   1.782       .  S
Cr2251     O2253   1.782       .  S
Cr2252     O2253   1.781       .  S
C2254      N2750   1.363       .  A
C2254      N2259   1.367   1_556  A
C2254      C3211   1.476   1_556  S
N2255      C2749   1.363       .  A
N2255      C2256   1.358       .  A
C2256      N2257   1.356       .  A
N2257      C2753   1.353       .  A
C2258      N2752   1.353       .  A
C2258      N2259   1.365   1_556  A
C2260      C2261   1.404       .  A
C2260      C2265   1.418   1_554  A
C2261      C2262   1.397       .  A
C2261      H2266   1.084       .  S
C2262      C2263   1.419       .  A
C2262      C2269   1.446       .  S
C2263      C2264   1.405   1_554  A
C2264      C2265   1.402       .  A
C2264      H2267   1.085       .  S
C2265      C2268   1.444       .  S
C2268      N2270   1.157       .  T
C2269      N2271   1.157       .  T
C2272      C2273   1.404       .  A
C2272      C2277   1.414   1_554  A
C2273      C2274   1.393       .  A
C2273      H2278   1.085       .  S
C2274      C2275   1.416       .  A
C2274      C2281   1.446       .  S
C2275      C2276   1.409   1_554  A
C2276      C2277   1.407       .  A
C2276      H2279   1.085       .  S
C2277      C2280   1.442       .  S
C2280      N2777   1.157       .  T
C2281      N2283   1.157       .  T
N2282      C2775   1.157       .  T
C2284      C2285   1.404       .  A
C2284      C2289   1.419   1_554  A
C2285      C2286   1.394       .  A
C2285      H2290   1.085       .  S
C2286      C2287   1.418       .  A
C2286      C2293   1.447       .  S
C2287      C2288   1.405   1_554  A
C2288      C2289   1.410       .  A
C2288      H2291   1.083       .  S
C2289      C2292   1.442       .  S
C2292      N2789   1.157       .  T
C2293      N2295   1.157       .  T
N2294      C2787   1.157       .  T
C2296      C2297   1.405       .  A
C2296      C2301   1.413       .  A
C2297      C2298   1.383       .  A
C2297      H2302   1.048       .  S
C2298      C2299   1.398       .  A
C2298      C2305   1.450       .  S
C2299      C2300   1.406       .  A
C2300      C2301   1.406       .  A
C2300      H2303   1.083       .  S
C2301      C2304   1.443       .  S
C2304      N2306   1.157       .  T
C2305      N2307   1.157       .  T
C2308      C2309   1.402       .  A
C2308      C2313   1.419       .  A
C2309      C2310   1.401       .  A
C2309      H2314   1.085       .  S
C2310      C2311   1.411       .  A
C2310      C3307   1.439       .  S
C2311      C2312   1.377       .  A
C2312      C2313   1.380       .  A
C2312      H2315   1.088       .  S
C2313      C2316   1.426       .  S
C2316      N2318   1.151       .  T
C2317      C3300   1.438       .  S
C2317      N2319   1.155       .  T
C2320      C2321   1.403       .  A
C2320      C2325   1.422       .  A
C2321      C2322   1.402       .  A
C2321      H2326   1.085       .  S
C2322      C2323   1.421       .  A
C2322      C2329   1.438       .  S
C2323      C2324   1.408       .  A
C2324      C2325   1.405       .  A
C2324      H2327   1.084       .  S
C2325      C2328   1.444       .  S
C2328      N2330   1.157       .  T
C2329      N2331   1.155       .  T
C2332      C3323   1.409       .  A
C2332      C2337   1.419       .  A
C2333      C3322   1.408   1_545  A
C2333      C2334   1.398       .  A
C2333      H2338   1.084       .  S
C2334      C2335   1.410       .  A
C2334      C2341   1.445       .  S
C2335      C2336   1.402       .  A
C2336      C3327   1.405   1_545  A
C2336      H2339   1.082       .  S
C2337      C3326   1.405       .  A
C2337      C2340   1.444       .  S
C2340      N2342   1.157       .  T
C2341      N2343   1.157       .  T
C2344      C2345   1.409       .  A
C2344      C2349   1.424       .  A
C2345      C2346   1.407       .  A
C2345      H2350   1.084       .  S
C2346      C2347   1.412       .  A
C2346      C2353   1.443       .  S
C2347      C2348   1.399       .  A
C2348      C2349   1.396       .  A
C2348      H2351   1.086       .  S
C2349      C2352   1.447       .  S
C2352      N2354   1.158       .  T
C2353      N2355   1.157       .  T
C2356      C3347   1.407       .  A
C2356      C2361   1.415       .  A
C2357      C3346   1.407       .  A
C2357      C2358   1.412   1_565  A
C2357      H3352   1.085       .  S
C2358      C2359   1.421       .  A
C2358      C2365   1.443       .  S
C2359      C2360   1.408       .  A
C2360      C3351   1.402       .  A
C2360      H2363   1.084       .  S
C2361      C3350   1.403       .  A
C2361      C2364   1.445       .  S
H2362      C3347   1.085       .  S
C2364      N2366   1.157       .  T
C2365      N2367   1.157       .  T
C2368      C2369   1.418       .  A
C2368      C2373   1.409       .  A
C2369      C2370   1.395       .  A
C2369      H2374   1.079       .  S
C2370      C2371   1.401       .  A
C2370      C2377   1.445       .  S
C2371      C2372   1.408       .  A
C2372      C2373   1.398       .  A
C2372      H2375   1.085       .  S
C2373      C2376   1.444       .  S
C2376      N2378   1.157       .  T
C2377      N2379   1.157       .  T
C2380      C2381   1.417       .  A
C2380      C2385   1.410       .  A
C2381      C2382   1.395       .  A
C2381      H2386   1.080       .  S
C2382      C2383   1.405       .  A
C2382      C2389   1.445       .  S
C2383      C2384   1.409       .  A
C2384      C2385   1.400       .  A
C2384      H2387   1.085       .  S
C2385      C2388   1.444       .  S
C2388      N2390   1.157       .  T
C2389      N2391   1.157       .  T
C2392      C2393   1.418       .  A
C2392      C2397   1.408       .  A
C2393      C2394   1.396       .  A
C2393      H2398   1.079       .  S
C2394      C2395   1.403       .  A
C2394      C2401   1.444       .  S
C2395      C2396   1.409       .  A
C2396      C2397   1.398       .  A
C2396      H2399   1.085       .  S
C2397      C2400   1.443       .  S
C2400      N2402   1.157       .  T
C2401      N2403   1.157       .  T
C2404      C2405   1.405       .  A
C2404      C2409   1.415       .  A
C2405      C2406   1.406       .  A
C2405      H2410   1.085       .  S
C2406      C2407   1.417       .  A
C2406      C2413   1.444       .  S
C2407      C2408   1.406       .  A
C2408      C2409   1.400       .  A
C2408      H2411   1.085       .  S
C2409      C2412   1.445       .  S
C2412      N2414   1.157       .  T
C2413      N2415   1.157       .  T
C2416      C2417   1.407       .  A
C2416      C2421   1.418       .  A
C2417      C2418   1.400       .  A
C2417      H2422   1.085       .  S
C2418      C2419   1.419       .  A
C2418      C2425   1.445       .  S
C2419      C2420   1.409       .  A
C2420      C2421   1.407       .  A
C2420      H2423   1.085       .  S
C2421      C2424   1.444       .  S
C2424      N2426   1.157       .  T
C2425      N2427   1.157   1_655  T
C2428      C2429   1.401       .  A
C2428      C2433   1.414   1_545  A
C2429      C2430   1.398       .  A
C2429      H2434   1.085       .  S
C2430      C2431   1.412       .  A
C2430      C2437   1.445       .  S
C2431      C2432   1.404   1_545  A
C2432      C2433   1.409       .  A
C2432      H3425   1.084       .  S
C2433      C3426   1.444       .  S
H2435      C3422   1.084       .  S
C2436      C3423   1.443       .  S
C2436      N2438   1.157       .  T
C2437      N2439   1.157       .  T
C2440      C2441   1.415       .  A
C2440      C2445   1.409       .  A
C2441      C2442   1.393       .  A
C2441      H2446   1.076       .  S
C2442      C2443   1.406       .  A
C2442      C2449   1.444       .  S
C2443      C2444   1.412       .  A
C2444      C2445   1.400       .  A
C2444      H2447   1.085       .  S
C2445      C2943   1.444       .  S
C2448      C2940   1.445       .  S
C2448      N2450   1.157       .  T
C2449      N2451   1.157       .  T
C2452      C2453   1.417       .  A
C2452      C3447   1.411       .  A
C2453      C2454   1.396       .  A
C2453      H2458   1.081       .  S
C2454      C3445   1.401       .  A
C2454      C2461   1.445       .  S
C2455      C3444   1.398   1_545  A
C2455      C2456   1.409       .  A
C2456      C2457   1.403       .  A
C2456      H2459   1.085       .  S
C2457      C3442   1.406   1_545  A
C2457      C2460   1.443       .  S
C2460      N2957   1.157       .  T
C2461      N2463   1.157       .  T
N2462      C2955   1.157       .  T
C2464      C2465   1.405   1_545  A
C2464      C2469   1.405       .  A
C2465      C3456   1.406       .  A
C2465      H2470   1.085       .  S
C2466      C3455   1.405       .  A
C2466      C2467   1.417       .  A
C2466      C2473   1.444       .  S
C2467      C2468   1.419       .  A
C2468      C3459   1.389       .  A
C2468      H2471   1.075   1_655  S
C2469      C3458   1.393       .  A
C2469      C2472   1.447   1_655  S
C2472      N2474   1.157       .  T
C2473      N2970   1.157       .  T
N2475      C2968   1.157       .  T
C2476      N2477   1.357       .  A
C2476      N2481   1.366       .  A
N2477      C2478   1.358       .  A
C2478      N2479   1.356       .  A
C2478      C2617   1.470       .  S
N2479      C2480   1.360       .  A
C2480      N2481   1.368       .  A
C2480      C2558   1.475       .  S
C2482      N2483   1.357       .  A
C2482      N2487   1.365       .  A
C2482      C2552   1.484       .  S
N2483      C2484   1.359       .  A
C2484      N2485   1.356       .  A
C2484      C2595   1.471       .  S
N2485      C2486   1.362       .  A
C2486      N2487   1.368       .  A
C2488      C2962   1.516       .  S
C2488      C2489   1.413       .  A
C2488      C3483   1.409       .  A
C2489      C2490   1.408       .  A
C2489      H2494   1.078       .  S
C2490      C2935   1.502       .  S
C2490      C2491   1.411       .  A
C2492      C2947   1.493       .  S
C2493      C3478   1.407       .  A
O2497     Cr2515   2.014       .  S
O2497      C2505   1.262       .  A
O2498     Cr2515   1.991       .  S
O2498      C2499   1.259       .  A
C2499      C2911   1.499       .  S
C2499      O2500   1.263       .  A
O2500     Cr2516   2.004       .  S
O2501     Cr2516   2.003       .  S
O2501      C2502   1.270       .  A
C2502      C2664   1.469       .  S
C2502      O2503   1.263       .  A
O2503     Cr2517   1.973       .  S
O2504     Cr2517   1.972       .  S
O2504      C2505   1.254       .  A
C2505      C2926   1.480       .  S
O2506     Cr2515   1.980       .  S
O2506      C3504   1.263   1_545  A
O2507     Cr2515   2.022       .  S
O2507      C2508   1.270       .  A
C2508      O2509   1.263       .  A
O2509     Cr2516   2.001       .  S
O2510     Cr2516   1.963       .  S
O2510      C2511   1.253       .  A
C2511      C2959   1.461       .  S
C2511      O2512   1.260   1_545  A
O2512     Cr2517   1.978   1_565  S
O2513     Cr3507   2.011       .  S
O2513      C2514   1.267       .  A
C2514      C2565   1.464       .  S
C2514      O3496   1.259       .  A
Cr2515     O2518   1.785       .  S
Cr2516     O2518   1.786       .  S
Cr2517     O3503   2.014   1_545  S
Cr2517     O2518   1.782       .  S
O2519     Cr2537   1.994       .  S
O2519      C2527   1.259       .  A
O2520     Cr2537   2.013       .  S
O2520      C2521   1.265       .  A
C2521      C2899   1.491       .  S
C2521      O2522   1.254       .  A
O2522     Cr2538   1.959       .  S
O2523     Cr2538   1.997       .  S
O2523      C2524   1.270       .  A
C2524      C2670   1.459       .  S
C2524      O2525   1.267       .  A
O2525     Cr2539   1.979       .  S
O2526     Cr2539   2.002       .  S
O2526      C2527   1.260       .  A
C2527      C2914   1.497       .  S
O2528     Cr2537   2.027       .  S
O2528      C2536   1.275       .  A
O2529     Cr2537   1.982       .  S
O2529      C2530   1.263       .  A
C2530      C2563   1.472       .  S
C2530      O2531   1.265       .  A
O2531     Cr2538   2.002       .  S
O2532     Cr2538   1.963       .  S
O2532      C2533   1.252       .  A
C2533      C2938   1.483       .  S
C2533      O2534   1.255       .  A
O2534     Cr2539   1.990       .  S
O2535     Cr2539   1.981       .  S
O2535      C2536   1.264       .  A
Cr2537     O2540   1.778       .  S
Cr2538     O2540   1.774       .  S
Cr2539     O2540   1.788       .  S
O2541     Cr2559   2.010       .  S
O2541      C2549   1.264       .  A
O2542     Cr2559   1.990       .  S
O2542      C2543   1.255       .  A
C2543      C2923   1.482       .  S
C2543      O2544   1.257   1_545  A
O2544     Cr2560   2.008   1_565  S
O2545     Cr2560   1.997       .  S
O2545      C2546   1.272       .  A
C2546      C2751   1.469       .  S
C2546      O2547   1.269       .  A
O2547     Cr2561   1.992       .  S
O2548     Cr2561   1.964       .  S
O2548      C2549   1.256       .  A
C2549      C2902   1.492       .  S
O2550     Cr2559   1.983       .  S
O2550      C2558   1.263       .  A
O2551     Cr2559   2.031   1_565  S
O2551      C3542   1.276       .  A
C2552      O3541   1.274       .  A
C2552      O2553   1.265       .  A
O2553     Cr3550   1.994       .  S
O2554     Cr2560   1.975       .  S
O2554      C2555   1.251       .  A
C2555      C2950   1.458       .  S
C2555      O2556   1.255       .  A
O2556     Cr2561   1.974       .  S
O2557     Cr2561   2.004       .  S
O2557      C2558   1.265       .  A
Cr2559     O2562   1.781       .  S
Cr2560     O3543   1.990   1_545  S
Cr2560     O2562   1.791       .  S
Cr2561     O2562   1.779       .  S
C2563      N2564   1.363       .  A
C2563      N2568   1.354       .  A
N2564      C2565   1.364       .  A
C2565      N2566   1.359       .  A
N2566      C2567   1.354       .  A
C2567      N2568   1.357       .  A
C2567      C2639   1.462       .  S
C2569      N2570   1.351       .  A
C2569      N2574   1.364       .  A
C2569      C2601   1.465       .  S
N2570      C2571   1.352       .  A
C2571      N2572   1.358       .  A
C2571      C2710   1.460       .  S
N2572      C2573   1.362       .  A
C2573      N2574   1.365       .  A
C2573      C2651   1.478       .  S
C2575      N2576   1.365       .  A
C2575      C2607   1.495       .  S
N2576      C2577   1.369       .  A
C2577      C2623   1.473       .  S
N2578      C2579   1.355       .  A
C2579      N2580   1.362       .  A
C2581      C2887   1.504       .  S
C2581      C2582   1.410       .  A
C2581      C2586   1.404       .  A
C2582      C2583   1.403       .  A
C2582      H2587   1.082       .  S
C2583      C2863   1.495       .  S
C2583      C2584   1.408       .  A
C2584      C2585   1.405       .  A
C2584      H2588   1.084       .  S
C2585      C2875   1.503       .  S
C2585      C2586   1.409       .  A
C2586      H2589   1.082       .  S
O2590     Cr2608   1.985       .  S
O2591     Cr2608   2.020       .  S
O2591      C2592   1.265       .  A
C2592      C2851   1.496       .  S
C2592      O2593   1.255       .  A
O2593     Cr2609   1.967       .  S
O2594     Cr2609   1.987       .  S
O2594      C2595   1.266       .  A
C2595      O2596   1.272       .  A
O2596     Cr2610   2.000       .  S
O2597      C2598   1.262       .  A
C2598      C2842   1.485       .  S
O2599     Cr2608   2.023       .  S
O2599      C2607   1.271       .  A
O2600     Cr2608   1.974       .  S
O2600      C2601   1.260       .  A
C2601      O2602   1.264       .  A
O2602     Cr2609   1.996       .  S
O2603     Cr2609   1.966       .  S
O2603      C2604   1.254       .  A
C2604      C2890   1.478       .  S
C2604      O2605   1.255       .  A
O2605     Cr2610   1.983       .  S
O2606     Cr2610   2.010       .  S
O2606      C2607   1.267       .  A
Cr2608     O2611   1.786       .  S
Cr2609     O2611   1.779       .  S
Cr2610     O2611   1.785       .  S
O2612     Cr2630   2.003       .  S
O2612      C2620   1.261       .  A
O2613     Cr2630   2.010       .  S
C2614      C2830   1.482       .  S
C2614      O2615   1.254       .  A
O2616     Cr2631   1.996       .  S
O2616      C2617   1.268       .  A
C2617      O2618   1.271       .  A
O2618     Cr2632   1.994       .  S
O2619     Cr2632   2.011       .  S
O2619      C2620   1.265       .  A
C2620      C2854   1.507       .  S
O2621     Cr2630   2.015       .  S
O2621      C2629   1.272       .  A
O2622     Cr2630   1.989       .  S
O2622      C2623   1.263       .  A
C2623      O2624   1.263       .  A
O2624     Cr2631   1.996       .  S
O2625     Cr2631   1.965       .  S
O2625      C2626   1.252       .  A
C2626      C2866   1.471       .  S
C2626      O2627   1.255       .  A
O2627     Cr2632   1.989       .  S
O2628     Cr2632   2.003       .  S
O2628      C2629   1.266       .  A
C2629      C2656   1.486       .  S
Cr2630     O2633   1.781       .  S
Cr2631     O2633   1.776       .  S
Cr2632     O2633   1.786       .  S
O2634     Cr2652   1.994       .  S
O2634      C2642   1.258       .  A
O2635     Cr2652   2.010       .  S
O2635      C2636   1.265       .  A
C2636      C2839   1.492       .  S
C2636      O2637   1.252       .  A
O2637     Cr2653   1.951       .  S
O2638     Cr2653   1.988       .  S
O2638      C2639   1.267       .  A
C2639      O2640   1.271       .  A
O2640     Cr2654   1.992       .  S
O2641     Cr2654   2.005       .  S
O2641      C2642   1.261       .  A
C2642      C2827   1.498       .  S
O2643     Cr2652   2.016       .  S
O2643      C2651   1.273       .  A
O2644     Cr2652   1.989       .  S
O2644      C2645   1.262       .  A
C2645      C2658   1.473       .  S
C2645      O2646   1.261       .  A
O2646     Cr2653   1.991       .  S
O2647     Cr2653   1.962       .  S
O2647      C2648   1.251       .  A
C2648      C2878   1.479       .  S
C2648      O2649   1.256       .  A
O2649     Cr2654   1.999       .  S
O2650     Cr2654   1.992       .  S
O2650      C2651   1.268       .  A
Cr2652     O2655   1.781       .  S
Cr2653     O2655   1.773       .  S
Cr2654     O2655   1.785       .  S
C2656      N2657   1.365       .  A
C2656      N2661   1.356       .  A
N2657      C2658   1.370       .  A
C2658      N2659   1.359       .  A
N2659      C2660   1.355       .  A
C2660      N2661   1.357       .  A
C2660      C2732   1.465       .  S
C2662      N2667   1.373       .  A
C2662      C2694   1.489       .  S
N2663      C2664   1.355       .  A
C2664      N2665   1.354       .  A
C2666      N2667   1.372       .  A
C2666      C3712   1.486       .  S
C2668      N2673   1.365       .  A
C2668      C2738   1.475       .  S
N2669      C2670   1.350       .  A
C2670      N2671   1.355       .  A
C2672      N2673   1.369       .  A
C2672      C2700   1.475       .  S
C2674      C2791   1.493       .  S
C2674      C2675   1.397       .  A
C2674      C2679   1.415       .  A
C2675      C2676   1.391       .  A
C2675      H2680   1.084       .  S
C2676      C2803   1.484       .  S
C2676      C2677   1.398       .  A
C2677      C2678   1.419       .  A
C2677      H2681   1.082       .  S
C2678      C2818   1.521       .  S
C2678      C2679   1.416       .  A
C2679      H2682   1.077       .  S
O2683     Cr2701   1.989       .  S
O2683      C2691   1.257       .  A
O2684     Cr2701   2.000       .  S
O2684      C2685   1.252       .  A
C2685      C2767   1.487       .  S
C2685      O2686   1.250       .  A
O2687      C2688   1.282       .  A
C2688      O2689   1.272       .  A
O2690      C2691   1.258       .  A
C2691      C2779   1.498       .  S
C2694      O2695   1.274       .  A
O2695     Cr2702   2.011       .  S
O2696     Cr2702   1.970       .  S
O2696      C2697   1.243       .  A
C2697      C2815   1.494       .  S
C2697      O2698   1.255       .  A
O2698     Cr2703   1.966       .  S
O2699     Cr2703   1.998       .  S
O2699      C2700   1.265       .  A
Cr2702     O2704   1.797       .  S
Cr2703     O2704   1.786       .  S
O2705     Cr2723   1.976       .  S
O2705      C2713   1.254       .  A
O2706     Cr2723   2.034       .  S
O2706      C2707   1.270       .  A
C2707      C2782   1.496       .  S
C2707      O2708   1.252       .  A
O2708     Cr2724   1.946       .  S
O2709     Cr2724   1.999       .  S
O2709      C2710   1.271       .  A
C2710      O2711   1.265       .  A
O2711     Cr2725   1.978       .  S
O2712     Cr2725   2.007       .  S
O2712      C2713   1.262       .  A
C2713      C2755   1.493       .  S
C2716      C3739   1.462       .  S
C2716      O2717   1.265       .  A
O2717     Cr2724   2.007       .  S
O2718     Cr3714   1.964   1_545  S
O2718      C2719   1.253       .  A
C2719      C2806   1.446       .  S
C2719      O2720   1.250   1_545  A
O2720     Cr3715   1.975       .  S
O2721     Cr2725   1.981       .  S
O2721      C2722   1.260       .  A
C2722      C3656   1.483       .  S
Cr2723     O2726   1.774       .  S
Cr2724     O3708   1.968       .  S
Cr2724     O2726   1.764       .  S
Cr2725     O3710   1.983       .  S
Cr2725     O2726   1.785       .  S
O2727     Cr2745   2.005       .  S
O2727      C2735   1.262       .  A
O2728     Cr2745   1.994       .  S
O2728      C2729   1.258       .  A
C2729      C2758   1.493       .  S
C2729      O2730   1.254       .  A
O2730     Cr2746   1.989       .  S
O2731     Cr2746   1.992       .  S
O2731      C2732   1.271       .  A
C2732      O2733   1.268       .  A
O2733     Cr2747   1.989       .  S
O2734     Cr2747   1.953       .  S
O2734      C2735   1.253       .  A
C2735      C2770   1.489       .  S
O2736     Cr2745   1.982       .  S
O2736      C2744   1.263       .  A
O2737     Cr2745   2.016       .  S
O2737      C2738   1.273       .  A
C2738      O2739   1.263       .  A
O2739     Cr2746   1.989       .  S
O2740     Cr2746   1.945       .  S
O2740      C2741   1.248       .  A
C2741      C2794   1.450       .  S
C2741      O2742   1.255       .  A
O2742     Cr2747   1.975       .  S
O2743     Cr2747   2.004       .  S
O2743      C2744   1.265       .  A
C2744      C2753   1.473       .  S
Cr2745     O2748   1.780       .  S
Cr2746     O2748   1.781       .  S
Cr2747     O2748   1.781       .  S
C2749      N2754   1.366       .  A
C2749      C3706   1.475       .  S
N2750      C2751   1.357       .  A
C2751      N2752   1.356       .  A
C2753      N2754   1.365       .  A
C2755      C2756   1.405       .  A
C2755      C2760   1.419       .  A
C2756      C2757   1.400       .  A
C2756      H2761   1.085       .  S
C2757      C2758   1.420       .  A
C2757      C2764   1.446       .  S
C2758      C2759   1.405       .  A
C2759      C2760   1.402       .  A
C2759      H2762   1.085       .  S
C2760      C2763   1.444       .  S
C2763      N2765   1.157       .  T
C2764      N2766   1.158       .  T
C2767      C2768   1.404       .  A
C2767      C2772   1.414       .  A
C2768      C2769   1.393       .  A
C2768      H2773   1.085       .  S
C2769      C2770   1.417       .  A
C2769      C2776   1.447       .  S
C2770      C2771   1.409       .  A
C2771      C2772   1.408       .  A
C2771      H2774   1.084       .  S
C2772      C2775   1.443       .  S
C2776      N2778   1.158       .  T
C2779      C2780   1.404       .  A
C2779      C2784   1.419       .  A
C2780      C2781   1.395       .  A
C2780      H2785   1.085       .  S
C2781      C2782   1.420       .  A
C2781      C2788   1.447       .  S
C2782      C2783   1.406       .  A
C2783      C2784   1.411       .  A
C2783      H2786   1.084       .  S
C2784      C2787   1.443       .  S
C2788      N2790   1.158       .  T
C2791      C2792   1.405       .  A
C2791      C2796   1.414       .  A
C2792      C2793   1.381       .  A
C2792      H2797   1.051       .  S
C2793      C2794   1.397       .  A
C2793      C2800   1.450       .  S
C2794      C2795   1.406       .  A
C2795      C2796   1.406       .  A
C2795      H2798   1.083       .  S
C2796      C2799   1.443       .  S
C2799      N2801   1.157       .  T
C2800      N2802   1.157       .  T
C2803      C2804   1.404       .  A
C2803      C2808   1.420       .  A
C2804      C2805   1.402       .  A
C2804      H2809   1.085       .  S
C2805      C2806   1.410       .  A
C2805      C3802   1.440       .  S
C2806      C2807   1.377       .  A
C2807      C2808   1.380       .  A
C2807      H2810   1.088       .  S
C2808      C2811   1.425       .  S
C2811      N2813   1.150       .  T
C2812      C3795   1.436       .  S
C2812      N2814   1.155       .  T
C2815      C2816   1.401       .  A
C2815      C2820   1.421       .  A
C2816      C2817   1.401       .  A
C2816      H2821   1.085       .  S
C2817      C2818   1.423       .  A
C2817      C2824   1.437       .  S
C2818      C2819   1.408       .  A
C2819      C2820   1.405       .  A
C2819      H2822   1.085       .  S
C2820      C2823   1.444       .  S
C2823      N2825   1.157       .  T
C2824      N2826   1.155       .  T
C2827      C3818   1.408       .  A
C2827      C2832   1.419       .  A
C2828      C3817   1.408   1_545  A
C2828      C2829   1.399       .  A
C2828      H2833   1.084       .  S
C2829      C2830   1.412       .  A
C2829      C2836   1.445       .  S
C2830      C2831   1.402       .  A
C2831      C3822   1.403   1_545  A
C2831      H2834   1.082       .  S
C2832      C3821   1.407       .  A
C2832      C2835   1.444       .  S
C2835      N2837   1.157       .  T
C2836      N2838   1.157       .  T
C2839      C2840   1.408       .  A
C2839      C2844   1.421       .  A
C2840      C2841   1.405       .  A
C2840      H2845   1.084       .  S
C2841      C2842   1.414       .  A
C2841      C2848   1.443       .  S
C2842      C2843   1.403       .  A
C2843      C2844   1.397       .  A
C2843      H2846   1.085       .  S
C2844      C2847   1.447       .  S
C2847      N2849   1.158       .  T
C2848      N2850   1.157       .  T
C2851      C3842   1.407       .  A
C2851      C2856   1.415       .  A
C2852      C3841   1.406       .  A
C2852      C2853   1.412   1_565  A
C2852      H3847   1.085       .  S
C2853      C2854   1.421       .  A
C2853      C2860   1.442       .  S
C2854      C2855   1.409       .  A
C2855      C3846   1.402       .  A
C2855      H2858   1.083       .  S
C2856      C3845   1.400       .  A
C2856      C2859   1.445       .  S
H2857      C3842   1.085       .  S
C2859      N2861   1.157       .  T
C2860      N2862   1.157       .  T
C2863      C2864   1.416       .  A
C2863      C2868   1.408       .  A
C2864      C2865   1.392       .  A
C2864      H2869   1.077       .  S
C2865      C2866   1.401       .  A
C2865      C2872   1.445       .  S
C2866      C2867   1.410       .  A
C2867      C2868   1.400       .  A
C2867      H2870   1.085       .  S
C2868      C2871   1.444       .  S
C2871      N2873   1.157       .  T
C2872      N2874   1.157       .  T
C2875      C2876   1.416       .  A
C2875      C2880   1.411       .  A
C2876      C2877   1.395       .  A
C2876      H2881   1.079       .  S
C2877      C2878   1.405       .  A
C2877      C2884   1.445       .  S
C2878      C2879   1.410       .  A
C2879      C2880   1.403       .  A
C2879      H2882   1.085       .  S
C2880      C2883   1.444       .  S
C2883      N2885   1.157       .  T
C2884      N2886   1.157       .  T
C2887      C2888   1.419       .  A
C2887      C2892   1.411       .  A
C2888      C2889   1.396       .  A
C2888      H2893   1.078       .  S
C2889      C2890   1.403       .  A
C2889      C2896   1.444       .  S
C2890      C2891   1.410       .  A
C2891      C2892   1.399       .  A
C2891      H2894   1.085       .  S
C2892      C2895   1.444       .  S
C2895      N2897   1.157       .  T
C2896      N2898   1.157       .  T
C2899      C2900   1.407       .  A
C2899      C2904   1.418       .  A
C2900      C2901   1.407       .  A
C2900      H2905   1.085       .  S
C2901      C2902   1.416       .  A
C2901      C2908   1.443       .  S
C2902      C2903   1.406       .  A
C2903      C2904   1.399       .  A
C2903      H2906   1.085       .  S
C2904      C2907   1.446       .  S
C2907      N2909   1.158       .  T
C2908      N2910   1.157       .  T
C2911      C2912   1.407       .  A
C2911      C2916   1.418       .  A
C2912      C2913   1.400       .  A
C2912      H2917   1.085       .  S
C2913      C2914   1.418       .  A
C2913      C2920   1.445       .  S
C2914      C2915   1.408       .  A
C2915      C2916   1.407       .  A
C2915      H2918   1.085       .  S
C2916      C2919   1.444       .  S
C2919      N2921   1.157       .  T
C2920      N2922   1.157       .  T
C2923      C2924   1.401       .  A
C2923      C2928   1.414   1_545  A
C2924      C2925   1.399       .  A
C2924      H2929   1.085       .  S
C2925      C2926   1.412       .  A
C2925      C2932   1.444       .  S
C2926      C2927   1.405   1_545  A
C2927      C2928   1.410       .  A
C2927      H3920   1.084       .  S
C2928      C3921   1.443       .  S
H2930      C3917   1.084       .  S
C2931      C3918   1.443       .  S
C2931      N2933   1.157       .  T
C2932      N2934   1.157       .  T
C2935      C2936   1.415   1_554  A
C2935      C2940   1.409       .  A
C2936      C2937   1.396       .  A
C2936      H2941   1.078       .  S
C2937      C2938   1.409       .  A
C2937      C2944   1.444       .  S
C2938      C2939   1.412       .  A
C2939      C2940   1.399   1_556  A
C2939      H2942   1.084       .  S
C2943      N2945   1.157       .  T
C2944      N2946   1.157       .  T
C2947      C2948   1.415   1_554  A
C2947      C3942   1.407       .  A
C2948      C2949   1.392       .  A
C2948      H2953   1.078       .  S
C2949      C3940   1.398       .  A
C2949      C2956   1.445       .  S
C2950      C3939   1.396   1_545  A
C2950      C2951   1.405       .  A
C2951      C2952   1.403   1_556  A
C2951      H2954   1.085       .  S
C2952      C3937   1.413   1_545  A
C2952      C2955   1.443       .  S
C2956      N2958   1.157       .  T
C2959      C2960   1.406   1_545  A
C2959      C2964   1.398       .  A
C2960      C3951   1.405   1_556  A
C2960      H2965   1.085       .  S
C2961      C3950   1.406   1_554  A
C2961      C2962   1.418       .  A
C2961      C2968   1.444       .  S
C2962      C2963   1.418   1_554  A
C2963      C3954   1.391       .  A
C2963      H2966   1.079   1_655  S
C2964      C3953   1.389       .  A
C2964      C2967   1.446       .  S
C2967      N2969   1.157   1_655  T
C2971      N2972   1.355       .  A
C2971      N2976   1.364       .  A
N2972      C2973   1.356       .  A
C2973      N2974   1.355       .  A
C2973      C3112   1.466       .  S
N2974      C2975   1.360       .  A
C2975      N2976   1.366       .  A
C2975      C3053   1.469       .  S
C2977      N2978   1.356       .  A
C2977      N2982   1.365       .  A
C2977      C3047   1.481       .  S
N2978      C2979   1.358       .  A
C2979      N2980   1.357       .  A
C2979      C3090   1.473       .  S
N2980      C2981   1.363       .  A
C2981      N2982   1.367       .  A
C2983      C3457   1.518   1_565  S
C2983      C2984   1.414       .  A
C2984      C2985   1.408       .  A
C2984      H2989   1.078       .  S
C2985      C3430   1.499       .  S
C2985      C2986   1.409       .  A
C2987      C3442   1.489       .  S
O2992     Cr3010   2.011       .  S
O2992      C3000   1.261       .  A
O2993     Cr3010   1.982       .  S
O2993      C2994   1.259       .  A
C2994      C3406   1.499       .  S
C2994      O2995   1.267       .  A
O2995     Cr3011   2.013       .  S
O2996     Cr3011   1.999       .  S
O2996      C2997   1.269       .  A
C2997      C3159   1.465       .  S
C2997      O2998   1.261       .  A
O2998     Cr3012   1.971       .  S
O2999     Cr3012   1.967       .  S
O2999      C3000   1.253       .  A
C3000      C3421   1.475       .  S
O3001     Cr3010   1.977       .  S
O3002     Cr3010   2.012       .  S
O3002      C3003   1.267       .  A
C3003      O3004   1.261       .  A
O3004     Cr3011   1.995       .  S
O3005     Cr3011   1.968       .  S
O3005      C3006   1.256       .  A
C3006      C3454   1.459       .  S
C3006      O3007   1.261       .  A
O3007     Cr3012   1.974       .  S
O3008      C3009   1.267       .  A
C3009      C3060   1.472       .  S
Cr3010     O3013   1.781       .  S
Cr3011     O3013   1.783       .  S
Cr3012     O3013   1.777       .  S
O3014     Cr3032   1.994       .  S
O3014      C3022   1.260       .  A
O3015     Cr3032   2.016       .  S
O3015      C3016   1.265       .  A
C3016      C3394   1.494       .  S
C3016      O3017   1.255       .  A
O3017     Cr3033   1.967       .  S
O3018     Cr3033   2.007       .  S
O3018      C3019   1.274       .  A
C3019      C3165   1.466       .  S
C3019      O3020   1.267       .  A
O3020     Cr3034   1.981       .  S
O3021     Cr3034   2.004       .  S
O3021      C3022   1.260       .  A
C3022      C3409   1.499       .  S
O3023     Cr3032   2.027       .  S
O3023      C3031   1.274       .  A
O3024     Cr3032   1.984       .  S
O3024      C3025   1.263       .  A
C3025      C3058   1.478       .  S
C3025      O3026   1.266       .  A
O3026     Cr3033   2.010       .  S
O3027     Cr3033   1.960       .  S
O3027      C3028   1.250       .  A
C3028      C3433   1.482       .  S
C3028      O3029   1.255       .  A
O3029     Cr3034   1.995       .  S
O3030     Cr3034   1.989       .  S
O3030      C3031   1.266       .  A
Cr3032     O3035   1.777       .  S
Cr3033     O3035   1.775       .  S
Cr3034     O3035   1.792       .  S
O3036     Cr3054   2.007       .  S
O3036      C3044   1.263       .  A
O3037     Cr3054   1.983       .  S
O3037      C3038   1.253       .  A
C3038      C3418   1.474       .  S
C3038      O3039   1.258       .  A
O3039     Cr3055   2.008       .  S
O3040     Cr3055   1.999       .  S
O3040      C3041   1.273       .  A
C3041      C3246   1.468       .  S
C3041      O3042   1.267       .  A
O3042     Cr3056   1.986       .  S
O3043     Cr3056   1.975       .  S
O3043      C3044   1.258       .  A
C3044      C3397   1.494       .  S
O3045     Cr3054   1.977       .  S
O3045      C3053   1.261       .  A
O3046     Cr3054   2.030       .  S
C3047      O3048   1.265       .  A
O3049     Cr3055   1.972       .  S
O3049      C3050   1.250       .  A
C3050      C3445   1.465       .  S
C3050      O3051   1.259       .  A
O3051     Cr3056   1.988       .  S
O3052     Cr3056   2.001       .  S
O3052      C3053   1.265       .  A
Cr3054     O3057   1.785       .  S
Cr3055     O3057   1.790       .  S
Cr3056     O3057   1.780       .  S
C3058      N3059   1.366       .  A
C3058      N3063   1.354       .  A
N3059      C3060   1.368       .  A
C3060      N3061   1.359       .  A
N3061      C3062   1.354       .  A
C3062      N3063   1.357       .  A
C3062      C3134   1.464       .  S
C3064      N3065   1.350       .  A
C3064      N3069   1.364       .  A
C3064      C3096   1.468       .  S
N3065      C3066   1.351       .  A
C3066      N3067   1.361       .  A
C3066      C3205   1.465       .  S
N3067      C3068   1.365       .  A
C3068      N3069   1.367       .  A
C3068      C3146   1.484       .  S
C3070      N3071   1.366       .  A
C3070      C3102   1.493       .  S
N3071      C3072   1.369       .  A
C3072      C3118   1.474       .  S
N3073      C3074   1.355       .  A
C3074      N3075   1.364       .  A
C3076      C3382   1.499       .  S
C3076      C3077   1.408       .  A
C3076      C3081   1.403       .  A
C3077      C3078   1.404       .  A
C3077      H3082   1.083       .  S
C3078      C3358   1.502       .  S
C3078      C3079   1.409       .  A
C3079      C3080   1.404       .  A
C3079      H3083   1.082       .  S
C3080      C3370   1.500       .  S
C3080      C3081   1.409       .  A
C3081      H3084   1.083       .  S
O3085     Cr3103   1.980       .  S
O3086     Cr3103   2.022       .  S
O3086      C3087   1.266       .  A
C3087      C3346   1.497       .  S
C3087      O3088   1.256       .  A
O3088     Cr3104   1.969       .  S
O3089     Cr3104   1.994       .  S
O3089      C3090   1.267       .  A
C3090      O3091   1.271       .  A
O3091     Cr3105   1.999       .  S
O3092      C3093   1.264   1_455  A
C3093      C3337   1.479       .  S
O3094     Cr3103   2.019       .  S
O3094      C3102   1.270       .  A
O3095     Cr3103   1.973       .  S
O3095      C3096   1.259       .  A
C3096      O3097   1.265       .  A
O3097     Cr3104   2.003       .  S
O3098     Cr3104   1.966       .  S
O3098      C3099   1.254       .  A
C3099      C3385   1.474       .  S
C3099      O3100   1.256       .  A
O3100     Cr3105   1.990       .  S
O3101     Cr3105   2.011       .  S
O3101      C3102   1.268       .  A
Cr3103     O3106   1.786       .  S
Cr3104     O3106   1.779       .  S
Cr3105     O3106   1.785       .  S
O3107     Cr3125   1.999       .  S
O3107      C3115   1.261       .  A
O3108     Cr3125   2.005       .  S
C3109      C3325   1.485       .  S
C3109      O3110   1.255       .  A
O3111     Cr3126   1.992       .  S
O3111      C3112   1.268       .  A
C3112      O3113   1.270       .  A
O3113     Cr3127   1.990       .  S
O3114     Cr3127   2.013       .  S
O3114      C3115   1.265       .  A
C3115      C3349   1.506       .  S
O3116     Cr3125   2.008       .  S
O3116      C3124   1.270       .  A
O3117     Cr3125   1.988       .  S
O3117      C3118   1.263       .  A
C3118      O3119   1.264       .  A
O3119     Cr3126   1.999       .  S
O3120     Cr3126   1.969       .  S
O3120      C3121   1.254       .  A
C3121      C3361   1.478       .  S
C3121      O3122   1.256       .  A
O3122     Cr3127   1.992       .  S
O3123     Cr3127   2.001       .  S
O3123      C3124   1.266       .  A
C3124      C3151   1.480       .  S
Cr3125     O3128   1.781       .  S
Cr3126     O3128   1.779       .  S
Cr3127     O3128   1.786       .  S
O3129     Cr3147   1.980       .  S
O3129      C3137   1.255       .  A
O3130     Cr3147   2.020       .  S
O3130      C3131   1.267       .  A
C3131      C3334   1.495       .  S
C3131      O3132   1.250       .  A
O3132     Cr3148   1.943       .  S
O3133     Cr3148   1.988       .  S
O3133      C3134   1.267       .  A
C3134      O3135   1.271       .  A
O3135     Cr3149   1.995       .  S
O3136     Cr3149   2.007       .  S
O3136      C3137   1.263       .  A
C3137      C3322   1.494       .  S
O3138     Cr3147   2.026       .  S
O3138      C3146   1.274       .  A
O3139     Cr3147   1.975       .  S
O3139      C3140   1.259       .  A
C3140      C3153   1.464       .  S
C3140      O3141   1.260       .  A
O3141     Cr3148   1.989       .  S
O3142     Cr3148   1.958       .  S
O3142      C3143   1.250       .  A
C3143      C3373   1.477       .  S
C3143      O3144   1.257       .  A
O3144     Cr3149   2.000       .  S
O3145     Cr3149   1.993       .  S
O3145      C3146   1.268       .  A
Cr3147     O3150   1.780       .  S
Cr3148     O3150   1.773       .  S
Cr3149     O3150   1.784       .  S
C3151      N3152   1.363       .  A
C3151      N3156   1.356       .  A
N3152      C3153   1.368       .  A
C3153      N3154   1.357       .  A
N3154      C3155   1.352       .  A
C3155      N3156   1.356       .  A
C3155      C3227   1.462       .  S
C3157      N3653   1.365   1_554  A
C3157      N3162   1.373       .  A
C3157      C3189   1.491       .  S
N3158      C3652   1.364       .  A
N3158      C3159   1.353       .  A
C3159      N3160   1.353       .  A
N3160      C3656   1.351       .  A
C3161      N3655   1.353   1_554  A
C3161      N3162   1.373       .  A
C3163      N3659   1.355   1_554  A
C3163      N3168   1.367       .  A
C3163      C3233   1.484       .  S
N3164      C3658   1.351       .  A
N3164      C3165   1.350       .  A
C3165      N3166   1.359       .  A
N3166      C3662   1.365       .  A
C3167      N3661   1.364       .  A
C3167      N3168   1.371   1_556  A
C3167      C3195   1.483   1_556  S
C3169      C3286   1.495       .  S
C3169      C3170   1.396       .  A
C3169      C3174   1.413       .  A
C3170      C3171   1.391       .  A
C3170      H3175   1.084       .  S
C3171      C3298   1.480       .  S
C3171      C3172   1.397       .  A
C3172      C3173   1.418       .  A
C3172      H3176   1.082       .  S
C3173      C3313   1.516       .  S
C3173      C3174   1.416       .  A
C3174      H3177   1.076       .  S
O3178     Cr3196   1.988       .  S
O3178      C3186   1.256       .  A
O3179     Cr3196   2.000       .  S
O3179      C3180   1.254       .  A
C3180      C3262   1.495       .  S
C3180      O3181   1.252       .  A
O3182      C3183   1.281       .  A
C3183      O3184   1.273       .  A
O3185      C3186   1.256       .  A
C3186      C3274   1.496       .  S
O3187      C3690   1.266       .  A
O3188      C3684   1.275       .  A
C3189      O3683   1.276       .  A
C3189      O3190   1.276       .  A
O3190     Cr3197   2.013       .  S
O3191     Cr3197   1.969       .  S
O3191      C3192   1.242       .  A
C3192      C3310   1.493       .  S
C3192      O3193   1.253       .  A
O3193     Cr3198   1.964       .  S
O3194     Cr3198   1.998       .  S
O3194      C3195   1.265       .  A
C3195      O3682   1.267   1_554  A
Cr3197     O3199   1.796       .  S
Cr3198     O3199   1.788       .  S
O3200     Cr3218   1.988       .  S
O3200      C3208   1.255       .  A
O3201     Cr3218   2.023       .  S
O3201      C3202   1.267       .  A
C3202      C3277   1.493       .  S
C3202      O3203   1.253       .  A
O3203     Cr3219   1.948       .  S
O3204     Cr3219   2.004       .  S
O3204      C3205   1.273       .  A
C3205      O3206   1.267       .  A
O3206     Cr3220   1.981       .  S
O3207     Cr3220   2.008       .  S
O3207      C3208   1.261       .  A
C3208      C3250   1.498       .  S
O3209     Cr3713   2.035       .  S
O3209      C3712   1.279   1_565  A
O3210     Cr3713   1.970   1_545  S
O3210      C3706   1.258       .  A
C3211      O3705   1.260   1_554  A
C3211      O3212   1.267       .  A
O3212     Cr3219   2.016   1_545  S
O3213      C3214   1.256       .  A
C3214      C3301   1.447       .  S
C3214      O3215   1.252       .  A
O3216     Cr3220   1.985   1_545  S
O3216      C3217   1.261       .  A
C3217      O3704   1.279   1_544  A
Cr3218     O3704   2.034   1_554  S
Cr3218     O3705   1.975   1_564  S
Cr3218     O3221   1.778       .  S
Cr3219     O3221   1.768       .  S
Cr3220     O3221   1.791       .  S
O3222     Cr3240   1.995       .  S
O3222      C3230   1.260       .  A
O3223     Cr3240   1.992       .  S
O3223      C3224   1.257       .  A
C3224      C3253   1.495       .  S
C3224      O3225   1.257       .  A
O3225     Cr3241   1.998       .  S
O3226     Cr3241   1.990       .  S
O3226      C3227   1.271       .  A
C3227      O3228   1.266       .  A
O3228     Cr3242   1.984       .  S
O3229     Cr3242   1.972       .  S
O3229      C3230   1.256       .  A
C3230      C3265   1.482       .  S
O3231     Cr3240   1.977   1_556  S
O3231      C3239   1.262   1_556  A
O3232     Cr3240   2.018       .  S
O3232      C3233   1.272       .  A
C3233      O3234   1.263       .  A
O3234     Cr3241   1.998       .  S
O3235     Cr3241   1.949       .  S
O3235      C3236   1.249       .  A
C3236      C3289   1.462       .  S
C3236      O3237   1.260       .  A
O3237     Cr3242   1.989       .  S
O3238     Cr3242   2.006       .  S
O3238      C3239   1.266       .  A
C3239      C3248   1.470   1_554  S
Cr3240     O3243   1.782       .  S
Cr3241     O3243   1.784       .  S
Cr3242     O3243   1.788       .  S
C3244      N3740   1.359       .  A
C3244      N3249   1.362   1_556  A
N3245      C3739   1.360       .  A
N3245      C3246   1.355       .  A
C3246      N3247   1.358       .  A
N3247      C3743   1.356       .  A
C3248      N3742   1.357       .  A
C3248      N3249   1.361   1_556  A
C3250      C3251   1.407       .  A
C3250      C3255   1.419       .  A
C3251      C3252   1.404       .  A
C3251      H3256   1.085       .  S
C3252      C3253   1.418       .  A
C3252      C3259   1.444       .  S
C3253      C3254   1.405       .  A
C3254      C3255   1.403       .  A
C3254      H3257   1.085       .  S
C3255      C3258   1.443       .  S
C3258      N3260   1.157       .  T
C3259      N3261   1.157       .  T
C3262      C3263   1.410       .  A
C3262      C3267   1.416       .  A
C3263      C3264   1.399       .  A
C3263      H3268   1.084       .  S
C3264      C3265   1.409       .  A
C3264      C3271   1.444       .  S
C3265      C3266   1.405       .  A
C3266      C3267   1.405       .  A
C3266      H3269   1.085   1_554  S
C3267      C3270   1.442   1_554  S
C3270      N3767   1.157       .  T
C3271      N3273   1.157       .  T
N3272      C3765   1.156       .  T
C3274      C3275   1.405       .  A
C3274      C3279   1.418   1_554  A
C3275      C3276   1.395       .  A
C3275      H3280   1.085       .  S
C3276      C3277   1.419       .  A
C3276      C3283   1.447       .  S
C3277      C3278   1.405   1_554  A
C3278      C3279   1.408       .  A
C3278      H3281   1.084       .  S
C3279      C3282   1.443       .  S
C3282      N3779   1.157       .  T
C3283      N3285   1.158       .  T
N3284      C3777   1.157       .  T
C3286      C3287   1.405       .  A
C3286      C3291   1.414       .  A
C3287      C3288   1.386       .  A
C3287      H3292   1.068       .  S
C3288      C3289   1.403       .  A
C3288      C3295   1.449       .  S
C3289      C3290   1.407       .  A
C3290      C3291   1.408       .  A
C3290      H3293   1.084       .  S
C3291      C3294   1.443       .  S
C3294      N3296   1.157       .  T
C3295      N3297   1.157       .  T
C3298      C3299   1.402       .  A
C3298      C3303   1.419       .  A
C3299      C3300   1.400       .  A
C3299      H3304   1.085       .  S
C3300      C3301   1.409       .  A
C3301      C3302   1.379       .  A
C3302      C3303   1.382       .  A
C3302      H3305   1.087       .  S
C3303      C3306   1.427       .  S
C3306      N3308   1.151       .  T
C3307      N3309   1.156   1_545  T
C3310      C3311   1.403       .  A
C3310      C3315   1.422       .  A
C3311      C3312   1.400       .  A
C3311      H3316   1.085       .  S
C3312      C3313   1.418       .  A
C3312      C3319   1.438       .  S
C3313      C3314   1.407       .  A
C3314      C3315   1.405       .  A
C3314      H3317   1.084       .  S
C3315      C3318   1.444       .  S
C3318      N3320   1.157       .  T
C3319      N3321   1.155       .  T
C3322      C3327   1.420       .  A
C3323      C3324   1.401       .  A
C3323      H3328   1.084       .  S
C3324      C3325   1.412       .  A
C3324      C3331   1.445       .  S
C3325      C3326   1.404       .  A
C3326      H3329   1.084       .  S
C3327      C3330   1.445       .  S
C3330      N3332   1.158       .  T
C3331      N3333   1.157       .  T
C3334      C3335   1.409       .  A
C3334      C3339   1.425       .  A
C3335      C3336   1.407       .  A
C3335      H3340   1.084       .  S
C3336      C3337   1.412       .  A
C3336      C3343   1.443       .  S
C3337      C3338   1.398       .  A
C3338      C3339   1.394       .  A
C3338      H3341   1.086       .  S
C3339      C3342   1.447       .  S
C3342      N3344   1.158       .  T
C3343      N3345   1.157       .  T
C3346      C3351   1.414   1_565  A
C3347      C3348   1.412       .  A
C3348      C3349   1.420       .  A
C3348      C3355   1.443       .  S
C3349      C3350   1.408       .  A
C3350      H3353   1.083       .  S
C3351      C3354   1.445       .  S
C3354      N3356   1.157       .  T
C3355      N3357   1.157       .  T
C3358      C3359   1.418       .  A
C3358      C3363   1.411       .  A
C3359      C3360   1.395       .  A
C3359      H3364   1.079       .  S
C3360      C3361   1.404       .  A
C3360      C3367   1.445       .  S
C3361      C3362   1.410       .  A
C3362      C3363   1.401       .  A
C3362      H3365   1.085       .  S
C3363      C3366   1.444       .  S
C3366      N3368   1.157       .  T
C3367      N3369   1.157       .  T
C3370      C3371   1.416       .  A
C3370      C3375   1.410       .  A
C3371      C3372   1.394       .  A
C3371      H3376   1.080       .  S
C3372      C3373   1.405       .  A
C3372      C3379   1.445       .  S
C3373      C3374   1.410       .  A
C3374      C3375   1.401       .  A
C3374      H3377   1.085       .  S
C3375      C3378   1.444       .  S
C3378      N3380   1.157       .  T
C3379      N3381   1.157       .  T
C3382      C3383   1.417       .  A
C3382      C3387   1.409       .  A
C3383      C3384   1.394       .  A
C3383      H3388   1.077       .  S
C3384      C3385   1.401       .  A
C3384      C3391   1.444       .  S
C3385      C3386   1.410       .  A
C3386      C3387   1.401       .  A
C3386      H3389   1.085       .  S
C3387      C3390   1.444       .  S
C3390      N3392   1.157       .  T
C3391      N3393   1.157       .  T
C3394      C3395   1.406       .  A
C3394      C3399   1.417       .  A
C3395      C3396   1.408       .  A
C3395      H3400   1.085       .  S
C3396      C3397   1.417       .  A
C3396      C3403   1.443       .  S
C3397      C3398   1.405       .  A
C3398      C3399   1.402       .  A
C3398      H3401   1.085       .  S
C3399      C3402   1.445       .  S
C3402      N3404   1.158       .  T
C3403      N3405   1.157       .  T
C3406      C3407   1.407       .  A
C3406      C3411   1.419       .  A
C3407      C3408   1.403       .  A
C3407      H3412   1.085       .  S
C3408      C3409   1.420       .  A
C3408      C3415   1.445       .  S
C3409      C3410   1.407       .  A
C3410      C3411   1.405       .  A
C3410      H3413   1.085       .  S
C3411      C3414   1.444       .  S
C3414      N3416   1.157       .  T
C3415      N3417   1.157   1_655  T
C3418      C3419   1.400       .  A
C3418      C3423   1.412       .  A
C3419      C3420   1.397       .  A
C3419      H3424   1.085       .  S
C3420      C3421   1.412       .  A
C3420      C3427   1.446       .  S
C3421      C3422   1.404       .  A
C3422      C3423   1.407       .  A
C3426      N3428   1.157       .  T
C3427      N3429   1.157       .  T
C3430      C3431   1.413       .  A
C3430      C3435   1.409       .  A
C3431      C3432   1.394       .  A
C3431      H3436   1.078       .  S
C3432      C3433   1.410       .  A
C3432      C3439   1.445       .  S
C3433      C3434   1.411       .  A
C3434      C3435   1.400       .  A
C3434      H3437   1.085       .  S
C3435      C3933   1.445       .  S
C3438      C3930   1.444       .  S
C3438      N3440   1.157       .  T
C3439      N3441   1.157       .  T
C3442      C3443   1.415       .  A
C3443      C3444   1.392       .  A
C3443      H3448   1.080       .  S
C3444      C3451   1.445       .  S
C3445      C3446   1.405       .  A
C3446      C3447   1.403       .  A
C3446      H3449   1.085       .  S
C3447      C3450   1.442       .  S
C3450      N3947   1.157       .  T
C3451      N3453   1.157       .  T
N3452      C3945   1.157       .  T
C3454      C3455   1.405       .  A
C3454      C3459   1.395       .  A
C3455      H3460   1.085       .  S
C3456      C3457   1.418   1_565  A
C3456      C3463   1.443       .  S
C3457      C3458   1.418       .  A
C3458      H3461   1.079   1_655  S
C3459      C3462   1.445       .  S
C3462      N3464   1.157   1_655  T
C3463      N3960   1.157       .  T
N3465      C3958   1.157       .  T
C3466      N3467   1.356       .  A
C3466      N3471   1.366       .  A
N3467      C3468   1.360       .  A
C3468      N3469   1.356       .  A
C3468      C3607   1.469       .  S
N3469      C3470   1.360       .  A
C3470      N3471   1.368       .  A
C3470      C3548   1.474       .  S
C3472      N3473   1.356       .  A
C3472      N3477   1.367       .  A
C3472      C3542   1.484       .  S
N3473      C3474   1.358       .  A
C3474      N3475   1.357       .  A
C3474      C3585   1.470       .  S
N3475      C3476   1.361       .  A
C3476      N3477   1.369       .  A
C3478      C3952   1.508   1_565  S
C3478      C3479   1.410       .  A
C3479      C3480   1.405       .  A
C3479      H3484   1.081       .  S
C3480      C3925   1.502       .  S
C3480      C3481   1.409       .  A
C3482      C3937   1.502       .  S
O3487     Cr3505   2.013       .  S
O3487      C3495   1.261       .  A
O3488     Cr3505   1.979       .  S
O3488      C3489   1.257       .  A
C3489      C3901   1.497       .  S
C3489      O3490   1.265       .  A
O3490     Cr3506   2.010       .  S
O3491     Cr3506   2.006       .  S
O3491      C3492   1.272       .  A
C3492      C3654   1.470       .  S
C3492      O3493   1.262       .  A
O3493     Cr3507   1.973       .  S
O3494     Cr3507   1.971       .  S
O3494      C3495   1.254       .  A
C3495      C3916   1.478       .  S
O3496     Cr3505   1.966       .  S
O3497     Cr3505   2.020       .  S
O3497      C3498   1.269       .  A
C3498      O3499   1.262       .  A
O3499     Cr3506   1.999       .  S
O3500     Cr3506   1.964       .  S
O3500      C3501   1.254       .  A
C3501      C3949   1.466       .  S
C3501      O3502   1.262       .  A
O3502     Cr3507   1.982       .  S
O3503      C3504   1.267       .  A
C3504      C3555   1.474       .  S
Cr3505     O3508   1.785       .  S
Cr3506     O3508   1.783       .  S
Cr3507     O3508   1.779       .  S
O3509     Cr3527   1.994       .  S
O3509      C3517   1.260       .  A
O3510     Cr3527   2.016       .  S
O3510      C3511   1.265       .  A
C3511      C3889   1.495       .  S
C3511      O3512   1.256       .  A
O3512     Cr3528   1.969       .  S
O3513     Cr3528   2.004       .  S
O3513      C3514   1.271       .  A
C3514      C3660   1.472       .  S
C3514      O3515   1.269       .  A
O3515     Cr3529   1.991       .  S
O3516     Cr3529   2.001       .  S
O3516      C3517   1.260       .  A
C3517      C3904   1.498       .  S
O3518     Cr3527   2.023       .  S
O3518      C3526   1.273       .  A
O3519     Cr3527   1.994       .  S
O3519      C3520   1.265       .  A
C3520      C3553   1.487       .  S
C3520      O3521   1.266       .  A
O3521     Cr3528   2.013       .  S
O3522     Cr3528   1.964       .  S
O3522      C3523   1.253       .  A
C3523      C3928   1.480       .  S
C3523      O3524   1.254       .  A
O3524     Cr3529   1.989       .  S
O3525     Cr3529   1.992       .  S
O3525      C3526   1.266       .  A
Cr3527     O3530   1.782       .  S
Cr3528     O3530   1.777       .  S
Cr3529     O3530   1.792       .  S
O3531     Cr3549   2.008       .  S
O3531      C3539   1.263       .  A
O3532     Cr3549   1.987       .  S
O3532      C3533   1.254       .  A
C3533      C3913   1.478       .  S
C3533      O3534   1.258       .  A
O3534     Cr3550   2.009       .  S
O3535     Cr3550   1.997       .  S
O3535      C3536   1.273       .  A
C3536      C3741   1.467       .  S
C3536      O3537   1.267       .  A
O3537     Cr3551   1.988       .  S
O3538     Cr3551   1.975       .  S
O3538      C3539   1.259       .  A
C3539      C3892   1.494       .  S
O3540     Cr3549   1.987       .  S
O3540      C3548   1.263       .  A
O3541     Cr3549   2.026       .  S
C3542      O3543   1.264       .  A
O3544     Cr3550   1.975       .  S
O3544      C3545   1.251       .  A
C3545      C3940   1.463       .  S
C3545      O3546   1.258       .  A
O3546     Cr3551   1.986       .  S
O3547     Cr3551   1.999       .  S
O3547      C3548   1.263       .  A
Cr3549     O3552   1.783       .  S
Cr3550     O3552   1.790       .  S
Cr3551     O3552   1.779       .  S
C3553      N3554   1.369       .  A
C3553      N3558   1.355       .  A
N3554      C3555   1.372       .  A
C3555      N3556   1.358       .  A
N3556      C3557   1.352       .  A
C3557      N3558   1.358       .  A
C3557      C3629   1.465       .  S
C3559      N3560   1.351       .  A
C3559      N3564   1.363       .  A
C3559      C3591   1.467       .  S
N3560      C3561   1.353       .  A
C3561      N3562   1.362       .  A
C3561      C3700   1.469       .  S
N3562      C3563   1.367       .  A
C3563      N3564   1.365       .  A
C3563      C3641   1.484       .  S
C3565      N3566   1.365       .  A
C3565      C3597   1.491       .  S
N3566      C3567   1.369       .  A
C3567      C3613   1.474       .  S
N3568      C3569   1.357       .  A
C3569      N3570   1.362       .  A
C3571      C3877   1.502       .  S
C3571      C3572   1.409       .  A
C3571      C3576   1.404       .  A
C3572      C3573   1.403       .  A
C3572      H3577   1.083       .  S
C3573      C3853   1.499       .  S
C3573      C3574   1.408       .  A
C3574      C3575   1.404       .  A
C3574      H3578   1.083       .  S
C3575      C3865   1.500       .  S
C3575      C3576   1.409       .  A
C3576      H3579   1.083       .  S
O3580     Cr3598   1.977       .  S
O3581     Cr3598   2.020       .  S
O3581      C3582   1.266       .  A
C3582      C3841   1.495       .  S
C3582      O3583   1.255       .  A
O3583     Cr3599   1.969       .  S
O3584     Cr3599   1.995       .  S
O3584      C3585   1.267       .  A
C3585      O3586   1.270       .  A
O3586     Cr3600   1.994       .  S
O3587      C3588   1.265   1_455  A
C3588      C3832   1.476       .  S
O3589     Cr3598   2.021       .  S
O3589      C3597   1.271       .  A
O3590     Cr3598   1.973       .  S
O3590      C3591   1.260       .  A
C3591      O3592   1.265       .  A
O3592     Cr3599   2.002       .  S
O3593     Cr3599   1.967       .  S
O3593      C3594   1.254       .  A
C3594      C3880   1.478       .  S
C3594      O3595   1.256       .  A
O3595     Cr3600   1.988       .  S
O3596     Cr3600   2.007       .  S
O3596      C3597   1.267       .  A
Cr3598     O3601   1.785       .  S
Cr3599     O3601   1.778       .  S
Cr3600     O3601   1.784       .  S
O3602     Cr3620   1.998       .  S
O3602      C3610   1.259       .  A
O3603     Cr3620   2.007       .  S
C3604      C3820   1.490       .  S
C3604      O3605   1.255   1_655  A
O3606     Cr3621   1.993       .  S
O3606      C3607   1.268       .  A
C3607      O3608   1.272       .  A
O3608     Cr3622   1.997       .  S
O3609     Cr3622   2.008       .  S
O3609      C3610   1.263       .  A
C3610      C3844   1.502       .  S
O3611     Cr3620   2.015       .  S
O3611      C3619   1.272       .  A
O3612     Cr3620   1.989       .  S
O3612      C3613   1.263       .  A
C3613      O3614   1.262       .  A
O3614     Cr3621   1.996       .  S
O3615     Cr3621   1.966       .  S
O3615      C3616   1.253       .  A
C3616      C3856   1.473       .  S
C3616      O3617   1.254       .  A
O3617     Cr3622   1.988       .  S
O3618     Cr3622   2.002       .  S
O3618      C3619   1.267       .  A
C3619      C3646   1.484       .  S
Cr3620     O3623   1.781       .  S
Cr3621     O3623   1.778       .  S
Cr3622     O3623   1.787       .  S
O3624     Cr3642   1.978       .  S
O3624      C3632   1.254       .  A
O3625     Cr3642   2.013       .  S
O3625      C3626   1.265       .  A
C3626      C3829   1.495       .  S
C3626      O3627   1.251       .  A
O3627     Cr3643   1.948       .  S
O3628     Cr3643   1.987       .  S
O3628      C3629   1.266       .  A
C3629      O3630   1.273       .  A
O3630     Cr3644   1.997       .  S
O3631     Cr3644   2.005       .  S
O3631      C3632   1.261       .  A
C3632      C3817   1.492       .  S
O3633     Cr3642   2.020       .  S
O3633      C3641   1.272       .  A
O3634     Cr3642   1.979       .  S
O3634      C3635   1.260       .  A
C3635      C3648   1.466       .  S
C3635      O3636   1.260       .  A
O3636     Cr3643   1.987       .  S
O3637     Cr3643   1.959       .  S
O3637      C3638   1.251       .  A
C3638      C3868   1.477       .  S
C3638      O3639   1.255       .  A
O3639     Cr3644   1.995       .  S
O3640     Cr3644   1.998       .  S
O3640      C3641   1.270       .  A
Cr3642     O3645   1.781       .  S
Cr3643     O3645   1.777       .  S
Cr3644     O3645   1.786       .  S
C3646      N3647   1.364       .  A
C3646      N3651   1.356       .  A
N3647      C3648   1.369       .  A
C3648      N3649   1.358       .  A
N3649      C3650   1.353       .  A
C3650      N3651   1.358       .  A
C3650      C3722   1.463       .  S
C3652      N3657   1.372       .  A
C3652      C3684   1.486       .  S
N3653      C3654   1.354       .  A
C3654      N3655   1.354       .  A
C3656      N3657   1.372       .  A
C3658      N3663   1.365       .  A
C3658      C3728   1.471       .  S
N3659      C3660   1.355       .  A
C3660      N3661   1.359       .  A
C3662      N3663   1.368       .  A
C3662      C3690   1.479       .  S
C3664      C3781   1.503       .  S
C3664      C3665   1.399       .  A
C3664      C3669   1.416       .  A
C3665      C3666   1.386       .  A
C3665      H3670   1.081       .  S
C3666      C3793   1.473       .  S
C3666      C3667   1.391       .  A
C3667      C3668   1.415       .  A
C3667      H3671   1.081       .  S
C3668      C3808   1.518       .  S
C3668      C3669   1.418       .  A
C3669      H3672   1.076       .  S
O3673     Cr3691   1.983       .  S
O3673      C3681   1.255       .  A
O3674     Cr3691   2.001       .  S
O3674      C3675   1.253       .  A
C3675      C3757   1.494       .  S
C3675      O3676   1.251       .  A
O3677      C3678   1.280       .  A
C3678      O3679   1.274       .  A
O3680      C3681   1.257       .  A
C3681      C3769   1.494       .  S
C3684      O3685   1.273       .  A
O3685     Cr3692   2.008       .  S
O3686     Cr3692   1.965       .  S
O3686      C3687   1.244       .  A
C3687      C3805   1.495       .  S
C3687      O3688   1.257       .  A
O3688     Cr3693   1.980       .  S
O3689     Cr3693   2.004       .  S
O3689      C3690   1.268       .  A
Cr3692     O3694   1.793       .  S
Cr3693     O3694   1.788       .  S
O3695     Cr3713   1.984       .  S
O3695      C3703   1.254       .  A
O3696     Cr3713   2.023       .  S
O3696      C3697   1.267       .  A
C3697      C3772   1.490       .  S
C3697      O3698   1.252       .  A
O3698     Cr3714   1.947       .  S
O3699     Cr3714   2.003       .  S
O3699      C3700   1.273       .  A
C3700      O3701   1.269       .  A
O3701     Cr3715   1.988       .  S
O3702     Cr3715   2.005       .  S
O3702      C3703   1.261       .  A
C3703      C3745   1.496       .  S
C3706      O3707   1.268       .  A
O3707     Cr3714   2.018   1_545  S
O3708      C3709   1.254       .  A
C3709      C3796   1.449       .  S
C3709      O3710   1.253       .  A
O3711     Cr3715   1.987   1_545  S
O3711      C3712   1.261       .  A
Cr3713     O3716   1.780       .  S
Cr3714     O3716   1.769       .  S
Cr3715     O3716   1.790       .  S
O3717     Cr3735   1.987       .  S
O3717      C3725   1.259       .  A
O3718     Cr3735   1.996       .  S
O3718      C3719   1.256       .  A
C3719      C3748   1.494       .  S
C3719      O3720   1.252       .  A
O3720     Cr3736   1.988       .  S
O3721     Cr3736   1.993       .  S
O3721      C3722   1.274       .  A
C3722      O3723   1.268       .  A
O3723     Cr3737   1.983       .  S
O3724     Cr3737   1.974       .  S
O3724      C3725   1.257       .  A
C3725      C3760   1.485       .  S
O3726     Cr3735   1.977       .  S
O3726      C3734   1.261       .  A
O3727     Cr3735   2.014       .  S
O3727      C3728   1.274       .  A
C3728      O3729   1.262       .  A
O3729     Cr3736   1.985       .  S
O3730     Cr3736   1.936       .  S
O3730      C3731   1.244       .  A
C3731      C3784   1.464       .  S
C3731      O3732   1.260       .  A
O3732     Cr3737   1.997       .  S
O3733     Cr3737   2.003       .  S
O3733      C3734   1.265       .  A
C3734      C3743   1.470       .  S
Cr3735     O3738   1.782       .  S
Cr3736     O3738   1.783       .  S
Cr3737     O3738   1.785       .  S
C3739      N3744   1.362       .  A
N3740      C3741   1.354       .  A
C3741      N3742   1.358       .  A
C3743      N3744   1.360       .  A
C3745      C3746   1.405       .  A
C3745      C3750   1.419       .  A
C3746      C3747   1.399       .  A
C3746      H3751   1.084       .  S
C3747      C3748   1.420       .  A
C3747      C3754   1.446       .  S
C3748      C3749   1.406       .  A
C3749      C3750   1.404       .  A
C3749      H3752   1.085       .  S
C3750      C3753   1.444       .  S
C3753      N3755   1.157       .  T
C3754      N3756   1.158       .  T
C3757      C3758   1.410       .  A
C3757      C3762   1.416       .  A
C3758      C3759   1.400       .  A
C3758      H3763   1.084       .  S
C3759      C3760   1.412       .  A
C3759      C3766   1.444       .  S
C3760      C3761   1.405       .  A
C3761      C3762   1.402       .  A
C3761      H3764   1.085       .  S
C3762      C3765   1.441       .  S
C3766      N3768   1.157       .  T
C3769      C3770   1.404       .  A
C3769      C3774   1.419       .  A
C3770      C3771   1.394       .  A
C3770      H3775   1.085       .  S
C3771      C3772   1.418       .  A
C3771      C3778   1.446       .  S
C3772      C3773   1.405       .  A
C3773      C3774   1.408       .  A
C3773      H3776   1.084       .  S
C3774      C3777   1.443       .  S
C3778      N3780   1.158       .  T
C3781      C3782   1.405       .  A
C3781      C3786   1.417       .  A
C3782      C3783   1.389       .  A
C3782      H3787   1.072       .  S
C3783      C3784   1.410       .  A
C3783      C3790   1.449       .  S
C3784      C3785   1.403       .  A
C3785      C3786   1.405       .  A
C3785      H3788   1.085       .  S
C3786      C3789   1.442       .  S
C3789      N3791   1.156       .  T
C3790      N3792   1.157       .  T
C3793      C3794   1.397       .  A
C3793      C3798   1.420       .  A
C3794      C3795   1.397       .  A
C3794      H3799   1.085       .  S
C3795      C3796   1.410       .  A
C3796      C3797   1.383       .  A
C3797      C3798   1.386       .  A
C3797      H3800   1.086       .  S
C3798      C3801   1.432       .  S
C3801      N3803   1.153       .  T
C3802      N3804   1.156   1_545  T
C3805      C3806   1.405       .  A
C3805      C3810   1.425       .  A
C3806      C3807   1.403       .  A
C3806      H3811   1.084       .  S
C3807      C3808   1.414       .  A
C3807      C3814   1.436       .  S
C3808      C3809   1.407       .  A
C3809      C3810   1.404       .  A
C3809      H3812   1.085       .  S
C3810      C3813   1.445       .  S
C3813      N3815   1.157       .  T
C3814      N3816   1.155       .  T
C3817      C3822   1.419       .  A
C3818      C3819   1.400       .  A
C3818      H3823   1.084       .  S
C3819      C3820   1.414       .  A
C3819      C3826   1.446       .  S
C3820      C3821   1.405       .  A
C3821      H3824   1.084       .  S
C3822      C3825   1.445       .  S
C3825      N3827   1.158       .  T
C3826      N3828   1.157       .  T
C3829      C3830   1.410       .  A
C3829      C3834   1.424       .  A
C3830      C3831   1.408       .  A
C3830      H3835   1.084       .  S
C3831      C3832   1.411       .  A
C3831      C3838   1.443       .  S
C3832      C3833   1.396       .  A
C3833      C3834   1.394       .  A
C3833      H3836   1.086       .  S
C3834      C3837   1.445       .  S
C3837      N3839   1.157       .  T
C3838      N3840   1.157       .  T
C3841      C3846   1.413   1_565  A
C3842      C3843   1.411       .  A
C3843      C3844   1.419       .  A
C3843      C3850   1.443       .  S
C3844      C3845   1.407       .  A
C3845      H3848   1.083       .  S
C3846      C3849   1.445       .  S
C3849      N3851   1.157       .  T
C3850      N3852   1.157       .  T
C3853      C3854   1.417       .  A
C3853      C3858   1.409       .  A
C3854      C3855   1.393       .  A
C3854      H3859   1.078       .  S
C3855      C3856   1.402       .  A
C3855      C3862   1.445       .  S
C3856      C3857   1.410       .  A
C3857      C3858   1.401       .  A
C3857      H3860   1.085       .  S
C3858      C3861   1.444       .  S
C3861      N3863   1.157       .  T
C3862      N3864   1.157       .  T
C3865      C3866   1.416       .  A
C3865      C3870   1.410       .  A
C3866      C3867   1.394       .  A
C3866      H3871   1.079       .  S
C3867      C3868   1.404       .  A
C3867      C3874   1.445       .  S
C3868      C3869   1.410       .  A
C3869      C3870   1.401       .  A
C3869      H3872   1.085       .  S
C3870      C3873   1.444       .  S
C3873      N3875   1.157       .  T
C3874      N3876   1.157       .  T
C3877      C3878   1.419       .  A
C3877      C3882   1.410       .  A
C3878      C3879   1.397       .  A
C3878      H3883   1.079       .  S
C3879      C3880   1.403       .  A
C3879      C3886   1.444       .  S
C3880      C3881   1.409       .  A
C3881      C3882   1.400       .  A
C3881      H3884   1.085       .  S
C3882      C3885   1.444       .  S
C3885      N3887   1.157       .  T
C3886      N3888   1.157       .  T
C3889      C3890   1.408       .  A
C3889      C3894   1.415       .  A
C3890      C3891   1.410       .  A
C3890      H3895   1.085       .  S
C3891      C3892   1.418       .  A
C3891      C3898   1.444       .  S
C3892      C3893   1.405       .  A
C3893      C3894   1.400       .  A
C3893      H3896   1.085       .  S
C3894      C3897   1.445       .  S
C3897      N3899   1.157       .  T
C3898      N3900   1.158       .  T
C3901      C3902   1.406       .  A
C3901      C3906   1.419       .  A
C3902      C3903   1.401       .  A
C3902      H3907   1.085       .  S
C3903      C3904   1.420       .  A
C3903      C3910   1.444       .  S
C3904      C3905   1.408       .  A
C3905      C3906   1.405       .  A
C3905      H3908   1.085       .  S
C3906      C3909   1.444       .  S
C3909      N3911   1.158       .  T
C3910      N3912   1.157   1_655  T
C3913      C3914   1.401       .  A
C3913      C3918   1.413       .  A
C3914      C3915   1.398       .  A
C3914      H3919   1.085       .  S
C3915      C3916   1.412       .  A
C3915      C3922   1.445       .  S
C3916      C3917   1.405       .  A
C3917      C3918   1.409       .  A
C3921      N3923   1.157       .  T
C3922      N3924   1.157       .  T
C3925      C3926   1.416   1_554  A
C3925      C3930   1.410       .  A
C3926      C3927   1.393       .  A
C3926      H3931   1.077       .  S
C3927      C3928   1.405       .  A
C3927      C3934   1.445       .  S
C3928      C3929   1.412       .  A
C3929      C3930   1.401   1_556  A
C3929      H3932   1.085       .  S
C3933      N3935   1.157       .  T
C3934      N3936   1.157       .  T
C3937      C3938   1.418   1_554  A
C3938      C3939   1.390       .  A
C3938      H3943   1.076       .  S
C3939      C3946   1.446       .  S
C3940      C3941   1.408       .  A
C3941      C3942   1.404   1_556  A
C3941      H3944   1.085       .  S
C3942      C3945   1.442       .  S
C3946      N3948   1.157       .  T
C3949      C3950   1.405       .  A
C3949      C3954   1.401       .  A
C3950      H3955   1.085       .  S
C3951      C3952   1.417   1_565  A
C3951      C3958   1.444       .  S
C3952      C3953   1.418   1_554  A
C3953      H3956   1.077   1_655  S
C3954      C3957   1.446   1_655  S
C3957      N3959   1.157       .  T
