geometry optimzed in LAMMPS
_audit_creation_date              2020-11-30 
_audit_creation_method            'lammps2cif' 
_symmetry_space_group_name_H-M    'P1' 
_symmetry_Int_Tables_number       1 
_symmetry_cell_setting            triclinic 
loop_ 
_symmetry_equiv_pos_as_xyz 
  x,y,z 
_cell_length_a                    54.76288893 
_cell_length_b                    30.27502373599902 
_cell_length_c                    34.537015151390726 
_cell_angle_alpha                 92.4848863629589 
_cell_angle_beta                  90.20587044064504 
_cell_angle_gamma                 88.9608581358649 
loop_ 
_atom_site_label 
_atom_site_type_symbol 
_atom_site_fract_x 
_atom_site_fract_y 
_atom_site_fract_z 
_atom_site_charge 
In1        In  0.14465098  0.01806786  0.25843895     1.36900
C2          C  0.11769230  0.51821640  0.19504315     0.77000
O3          O  0.15440851  0.08781522  0.24595379    -0.61400
O4          O  0.18039312  0.04727437  0.27395756    -0.52400
C5          C  0.12101048  0.01985021  0.32637794     0.69700
O6          O  0.11608399  0.49328254  0.30028008    -0.47200
C7          C  0.17449507  0.44797379  0.25685300     0.74400
O8          O  0.11324627  0.04416350  0.22225795    -0.59100
O9          O  0.17797459  0.48180314  0.23783804    -0.49200
O10         O  0.13550576  0.49227565  0.19988476    -0.55500
C11         C  0.17565917  0.08403329  0.25989402     0.84500
O12         O  0.13796227  0.04569574  0.31910253    -0.57400
O13         O  0.15493095  0.44884776  0.27616343    -0.60700
C14         C  0.49615282  0.45342909  0.24870182     0.01700
C15         C  0.47022991  0.45299142  0.24798911     0.01700
C16         C  0.45694372  0.99313125  0.24804719    -0.18800
C17         C  0.46889855  0.03385489  0.24901731     0.01700
C18         C  0.49480319  0.03438064  0.24940741     0.01700
C19         C  0.50808132  0.99419160  0.24980575    -0.18800
H20         H  0.52786074  0.99467071  0.25056180     0.03700
H21         H  0.43716169  0.99276296  0.24728321     0.03700
C22         C  0.42110748  0.20599140  0.25126995     0.79600
N23         N  0.43457444  0.24339229  0.25002447    -0.78700
C24         C  0.42307217  0.28372659  0.25014585     0.82100
N25         N  0.39837811  0.28637145  0.25111444    -0.78600
C26         C  0.38499130  0.24938865  0.25221446     0.82200
N27         N  0.39633761  0.20919143  0.25247909    -0.80300
C28         C  0.54287575  0.20319458  0.24736286     0.79600
N29         N  0.53076044  0.24294029  0.24722804    -0.78700
C30         C  0.54360490  0.28101833  0.24596926     0.82100
N31         N  0.56832873  0.27912626  0.24522011    -0.78600
C32         C  0.58042289  0.23975567  0.24549182     0.82200
N33         N  0.56768570  0.20178928  0.24646062    -0.80300
C34         C  0.24343053  0.22541016  0.25954721     0.79600
N35         N  0.23097916  0.26424220  0.25940993    -0.81800
C36         C  0.24291190  0.30276410  0.25899673     0.82100
N37         N  0.26771151  0.30274764  0.25860917    -0.78600
C38         C  0.28036066  0.26362500  0.25899824     0.82200
N39         N  0.26818764  0.22488581  0.25940708    -0.80300
C40         C  0.72212128  0.28221376  0.24337165     0.79600
N41         N  0.69734444  0.28206542  0.24219764    -0.78700
C42         C  0.68547345  0.24291116  0.24030466     0.82100
N43         N  0.69848190  0.20421789  0.23964512    -0.78600
C44         C  0.72322804  0.20481758  0.24066737     0.82200
N45         N  0.73492526  0.24368542  0.24264387    -0.80300
In46       In  0.82025933  0.98927263  0.24679819     1.36900
C47         C  0.84662057  0.98808003  0.31241711     0.77000
O48         O  0.80761321  0.05726517  0.26619435    -0.61400
O49         O  0.78721392  0.02200987  0.22276704    -0.52400
C50         C  0.84586030  0.98857800  0.18098468     0.69700
O51         O  0.84765825  0.45739124  0.20560919    -0.47200
C52         C  0.78848871  0.42553737  0.24975649     0.74400
O53         O  0.84952380  0.01662683  0.28738918    -0.59100
O54         O  0.78682181  0.45997473  0.27145713    -0.49200
O55         O  0.83246498  0.45813705  0.30323857    -0.55500
C56         C  0.78930620  0.05669570  0.24382872     0.84500
O57         O  0.83243462  0.02040292  0.19274495    -0.57400
O58         O  0.80712671  0.42299019  0.22826832    -0.60700
C59         C  0.07235616  0.01801189  0.47499557     0.79600
N60         N  0.08356724  0.02122037  0.01021667    -0.78700
C61         C  0.07005928  0.02041026  0.04322634     0.82100
N62         N  0.04547150  0.01597214  0.04081876    -0.78600
C63         C  0.03430915  0.01288602  0.00570160     0.82200
N64         N  0.04776810  0.01380760  0.47289453    -0.80300
C65         C  0.89314308  0.98989530  0.03145827     0.79600
N66         N  0.88078705  0.98780224  0.99711984    -0.78700
C67         C  0.89325390  0.98941644  0.46313174     0.82100
N68         N  0.91788861  0.99339957  0.46362980    -0.78600
C69         C  0.93014166  0.99542378  0.99781212     0.82200
N70         N  0.91777423  0.99362977  0.03156665    -0.80300
C71         C  0.96739319  0.04049782  0.49157647    -0.02400
C72         C  0.95677856  0.99959825  0.99848945     0.07300
C73         C  0.97200571  0.46106630  0.00853732    -0.02500
C74         C  0.99746129  0.46559340  0.01115344    -0.02500
C75         C  0.00769448  0.00823060  0.00309649     0.07400
C76         C  0.99290486  0.04466702  0.49343902    -0.02700
Br77       Br  0.00764427  0.10050529  0.48368824    -0.01300
Br78       Br  0.94688820  0.09108965  0.48101609    -0.01400
Br79       Br  0.01786574  0.41550271  0.02337662    -0.01300
Br80       Br  0.95737911  0.40451438  0.01591112    -0.01300
C81         C  0.86930893  0.44839557  0.36628760    -0.02400
C82         C  0.85936464  0.98860816  0.35053692     0.07300
C83         C  0.86182604  0.02872798  0.37272853    -0.02500
C84         C  0.87213768  0.02855942  0.41018290    -0.02500
C85         C  0.88035154  0.98866076  0.42555675     0.07400
C86         C  0.87995726  0.44803063  0.40350688    -0.02700
Br87       Br  0.89375841  0.39397778  0.42257754    -0.01300
Br88       Br  0.86919538  0.39432344  0.33445268    -0.01400
Br89       Br  0.87518083  0.08307729  0.44081237    -0.01300
Br90       Br  0.85021403  0.08409298  0.35310738    -0.01300
C91         C  0.88081275  0.02745388  0.09427876    -0.02400
C92         C  0.88017955  0.98976161  0.06889204     0.07300
C93         C  0.86915086  0.45055544  0.08225547    -0.02500
C94         C  0.85805628  0.45013280  0.11902839    -0.02500
C95         C  0.85841437  0.98826091  0.14298161     0.07400
C96         C  0.87003703  0.02674525  0.13118528    -0.02700
Br97       Br  0.87222871  0.07830286  0.16596913    -0.01300
Br98       Br  0.89628856  0.08049816  0.07822411    -0.01400
Br99       Br  0.84063716  0.39838069  0.13318677    -0.01300
Br100      Br  0.86980330  0.39781218  0.04878662    -0.01300
C101        C  0.74714635  0.14535575  0.20613529    -0.02400
C102        C  0.73776357  0.16400122  0.24107412     0.07300
C103        C  0.74492391  0.14723764  0.27677184    -0.02500
C104        C  0.76134938  0.11121427  0.27759649    -0.02500
C105        C  0.77141177  0.09326527  0.24271705     0.07400
C106        C  0.76408344  0.11002342  0.20686728    -0.02700
Br107      Br  0.77830274  0.08686816  0.15888505    -0.01300
Br108      Br  0.73758895  0.16991474  0.15755568    -0.01400
Br109      Br  0.76908819  0.08535041  0.32641060    -0.01300
Br110      Br  0.73307390  0.17513780  0.32456617    -0.01300
C111        C  0.76001108  0.37647497  0.21271983    -0.02400
C112        C  0.76969847  0.39153216  0.24871359     0.07300
C113        C  0.76142919  0.37386156  0.28336513    -0.02500
C114        C  0.74443053  0.33962024  0.28171253    -0.02500
C115        C  0.73564991  0.32337840  0.24560419     0.07400
C116        C  0.74328679  0.34189713  0.21117761    -0.02700
Br117      Br  0.73196539  0.31780309  0.16180160    -0.01300
Br118      Br  0.76896772  0.40399693  0.16550435    -0.01400
Br119      Br  0.73421751  0.31292483  0.32861991    -0.01300
Br120      Br  0.77456362  0.39401855  0.33289266    -0.01300
C121        C  0.62047550  0.25893556  0.27562749    -0.02400
C122        C  0.60729809  0.23878406  0.24471936     0.07300
C123        C  0.61978685  0.22016835  0.21218065    -0.02500
C124        C  0.64541024  0.22220808  0.21033901    -0.02500
C125        C  0.65859554  0.24223272  0.24133519     0.07400
C126        C  0.64608882  0.26042080  0.27404870    -0.02700
Br127      Br  0.66406295  0.28579380  0.31751843    -0.01300
Br128      Br  0.60346884  0.28326719  0.32080456    -0.01400
Br129      Br  0.66230693  0.19985976  0.16440367    -0.01300
Br130      Br  0.60170641  0.19371783  0.16935460    -0.01300
C131        C  0.32053914  0.25033592  0.29075101    -0.02400
C132        C  0.30717912  0.26269771  0.25791736     0.07300
C133        C  0.31943428  0.27187470  0.22347553    -0.02500
C134        C  0.34501249  0.26752783  0.22158790    -0.02500
C135        C  0.35826272  0.25340157  0.25397638     0.07400
C136        C  0.34606922  0.24546859  0.28872764    -0.02700
Br137      Br  0.36445636  0.22985550  0.33402266    -0.01300
Br138      Br  0.30392943  0.24200268  0.33895743    -0.01400
Br139      Br  0.36188674  0.27995295  0.17440464    -0.01300
Br140      Br  0.30112632  0.28898250  0.17854718    -0.01300
C141        C  0.44905545  0.09663505  0.21447795    -0.02400
C142        C  0.45417948  0.07582989  0.24937667     0.07300
C143        C  0.44580977  0.09588845  0.28462325    -0.02500
C144        C  0.43557740  0.13900103  0.28540487    -0.02500
C145        C  0.43300149  0.16172323  0.25080893     0.07400
C146        C  0.43911132  0.13991363  0.21522244    -0.02700
Br147      Br  0.43304136  0.16888459  0.16741913    -0.01300
Br148      Br  0.45256938  0.06366633  0.16584466    -0.01400
Br149      Br  0.42493918  0.16691545  0.33382619    -0.01300
Br150      Br  0.44595635  0.06273563  0.33100468    -0.01300
C151        C  0.45675383  0.38199741  0.21436963    -0.02400
C152        C  0.45680925  0.41050643  0.24781432     0.07300
C153        C  0.44481103  0.39759043  0.28150654    -0.02500
C154        C  0.43513416  0.35491600  0.28286487    -0.02500
C155        C  0.43670233  0.32532689  0.25025667     0.07400
C156        C  0.44729875  0.33913311  0.21585212    -0.02700
Br157      Br  0.44750829  0.30021256  0.17012456    -0.01300
Br158      Br  0.46638899  0.40383899  0.16529943    -0.01400
Br159      Br  0.41959104  0.33677402  0.32956559    -0.01300
Br160      Br  0.44002480  0.43908344  0.32496687    -0.01300
C161        C  0.52507922  0.13693514  0.21309261    -0.02400
C162        C  0.52950641  0.16123892  0.24800821     0.07300
C163        C  0.52414612  0.14256462  0.28358233    -0.02500
C164        C  0.51356197  0.10046383  0.28415976    -0.02500
C165        C  0.50822942  0.07683340  0.24913437     0.07400
C166        C  0.51544360  0.09414069  0.21374418    -0.02700
Br167      Br  0.51497724  0.05746010  0.16676997    -0.01300
Br168      Br  0.53223605  0.16249621  0.16431630    -0.01400
Br169      Br  0.50881811  0.07321349  0.33284425    -0.01300
Br170      Br  0.53194631  0.17436101  0.33148511    -0.01300
C171        C  0.52310639  0.39481210  0.21554664    -0.02400
C172        C  0.51075994  0.41128229  0.24912730     0.07300
C173        C  0.51122132  0.38614179  0.28258623    -0.02500
C174        C  0.52083385  0.34264857  0.28096765    -0.02500
C175        C  0.53127255  0.32483149  0.24641186     0.07400
C176        C  0.53312972  0.35153950  0.21410617    -0.02700
Br177      Br  0.54930300  0.32858331  0.16769877    -0.01300
Br178      Br  0.52753865  0.43211759  0.17227506    -0.01400
Br179      Br  0.52103558  0.30829779  0.32674853    -0.01300
Br180      Br  0.50169047  0.41332061  0.33174127    -0.01300
C181        C  0.10374885  0.47841865  0.38318332    -0.02400
C182        C  0.10904177  0.01941322  0.36503696     0.07300
C183        C  0.10445438  0.05939282  0.38692653    -0.02500
C184        C  0.09356723  0.05860332  0.42384585    -0.02500
C185        C  0.08653409  0.01826702  0.43872270     0.07400
C186        C  0.09209810  0.47799662  0.41948877    -0.02700
Br187      Br  0.08293095  0.42265733  0.44060333    -0.01300
Br188      Br  0.11271543  0.42274878  0.35712314    -0.01400
Br189      Br  0.08744886  0.11292937  0.45388233    -0.01300
Br190      Br  0.11145456  0.11586847  0.36589762    -0.01300
C191        C  0.09902850  0.47878081  0.13696187    -0.02400
C192        C  0.10410890  0.01967229  0.15587995     0.07300
C193        C  0.09709250  0.06028426  0.13980205    -0.02500
C194        C  0.08587824  0.06058204  0.10291742    -0.02500
C195        C  0.08202819  0.02059904  0.08162082     0.07400
C196        C  0.08836979  0.47927045  0.09981807    -0.02700
Br197      Br  0.08239368  0.42446128  0.07095806    -0.01300
Br198      Br  0.10565607  0.42258036  0.15967485    -0.01400
Br199      Br  0.07571856  0.11569444  0.08126377    -0.01300
Br200      Br  0.10385257  0.11590179  0.16685964    -0.01300
C201        C  0.22703163  0.15999199  0.29091972    -0.02400
C202        C  0.22944125  0.18473552  0.25773019     0.07300
C203        C  0.21496548  0.17552335  0.22475267    -0.02500
C204        C  0.19714018  0.14289721  0.22547108    -0.02500
C205        C  0.19396836  0.11900999  0.25925946     0.07400
C206        C  0.20928689  0.12712090  0.29180262    -0.02700
Br207      Br  0.20489516  0.09612105  0.33899698    -0.01300
Br208      Br  0.24698534  0.17312433  0.33597583    -0.01400
Br209      Br  0.17770217  0.13077112  0.17955907    -0.01300
Br210      Br  0.21974184  0.20799765  0.17847297    -0.01300
C211        C  0.19992398  0.39416494  0.29307258    -0.02400
C212        C  0.19254815  0.41134800  0.25741049     0.07300
C213        C  0.20344785  0.39493488  0.22253446    -0.02500
C214        C  0.22137919  0.36118958  0.22337229    -0.02500
C215        C  0.22829317  0.34362433  0.25887778     0.07400
C216        C  0.21746246  0.35978824  0.29362973    -0.02700
Br217      Br  0.22609329  0.33332221  0.34182909    -0.01300
Br218      Br  0.18695634  0.41856670  0.34151591    -0.01400
Br219      Br  0.23539786  0.33685951  0.17570925    -0.01300
Br220      Br  0.19267808  0.41606973  0.17320660    -0.01300
In221      In  0.14465354  0.01809025  0.75842435     1.36900
C222        C  0.11767184  0.51828971  0.69505509     0.77000
O223        O  0.15445064  0.08781110  0.74591239    -0.61400
O224        O  0.18041310  0.04724883  0.77393955    -0.52400
C225        C  0.12099417  0.01987202  0.82634728     0.69700
O226        O  0.11600216  0.49341243  0.80020200    -0.47200
C227        C  0.17445442  0.44793944  0.75679207     0.74400
O228        O  0.11331205  0.04436954  0.72221996    -0.59100
O229        O  0.17792918  0.48175046  0.73774918    -0.49200
O230        O  0.13541520  0.49220276  0.69993797    -0.55500
C231        C  0.17569750  0.08400687  0.75986094     0.84500
O232        O  0.13799508  0.04563434  0.81912381    -0.57400
O233        O  0.15490888  0.44885523  0.77615050    -0.60700
C234        C  0.49616055  0.45346804  0.74866371     0.01700
C235        C  0.47023771  0.45302332  0.74795592     0.01700
C236        C  0.45694519  0.99316135  0.74802654    -0.18800
C237        C  0.46889678  0.03388789  0.74900081     0.01700
C238        C  0.49480136  0.03442138  0.74939466     0.01700
C239        C  0.50808247  0.99423496  0.74978743    -0.18800
H240        H  0.52786198  0.99471873  0.75054376     0.03700
H241        H  0.43716324  0.99278819  0.74726068     0.03700
C242        C  0.42110413  0.20601961  0.75120456     0.79600
N243        N  0.43457840  0.24341217  0.74996269    -0.78700
C244        C  0.42308362  0.28375294  0.75007885     0.82100
N245        N  0.39838983  0.28641286  0.75104213    -0.78600
C246        C  0.38499537  0.24943933  0.75214017     0.82200
N247        N  0.39633430  0.20923492  0.75240893    -0.80300
C248        C  0.54287553  0.20323853  0.74738950     0.79600
N249        N  0.53076349  0.24298626  0.74723588    -0.78700
C250        C  0.54361147  0.28106036  0.74597863     0.82100
N251        N  0.56833545  0.27916267  0.74524667    -0.78600
C252        C  0.58042670  0.23979000  0.74553780     0.82200
N253        N  0.56768576  0.20182754  0.74650718    -0.80300
C254        C  0.24345222  0.22540395  0.75952391     0.79600
N255        N  0.23098282  0.26421582  0.75935727    -0.81800
C256        C  0.24289691  0.30275527  0.75892009     0.82100
N257        N  0.26769665  0.30277717  0.75853944    -0.78600
C258        C  0.28036419  0.26367426  0.75895560     0.82200
N259        N  0.26820899  0.22491759  0.75938688    -0.80300
C260        C  0.72212634  0.28223243  0.74342057     0.79600
N261        N  0.69734969  0.28207816  0.74225698    -0.78700
C262        C  0.68548086  0.24292188  0.74038446     0.82100
N263        N  0.69849217  0.20423113  0.73973185    -0.78600
C264        C  0.72323865  0.20483615  0.74074219     0.82200
N265        N  0.73493323  0.24370709  0.74269979    -0.80300
In266      In  0.82026809  0.98927215  0.74680121     1.36900
C267        C  0.84662589  0.98806554  0.81242348     0.77000
O268        O  0.80763382  0.05726917  0.76621645    -0.61400
O269        O  0.78722495  0.02203461  0.72278884    -0.52400
C270        C  0.84586946  0.98857727  0.68098252     0.69700
O271        O  0.84765283  0.45734274  0.70559583    -0.47200
C272        C  0.78849420  0.42555150  0.74976953     0.74400
O273        O  0.84954744  0.01658977  0.78738149    -0.59100
O274        O  0.78683228  0.45999512  0.77146361    -0.49200
O275        O  0.83246937  0.45815232  0.80324770    -0.55500
C276        C  0.78932306  0.05671324  0.74385833     0.84500
O277        O  0.83243820  0.02039648  0.69273935    -0.57400
O278        O  0.80713075  0.42299145  0.72827818    -0.60700
C279        C  0.07234954  0.01799733  0.97497035     0.79600
N280        N  0.08355659  0.02126927  0.51025438    -0.78700
C281        C  0.07003474  0.02045009  0.54324915     0.82100
N282        N  0.04545052  0.01597028  0.54081454    -0.78600
C283        C  0.03430602  0.01285166  0.50568535     0.82200
N284        N  0.04775860  0.01383300  0.97289667    -0.80300
C285        C  0.89315048  0.98989587  0.53144841     0.79600
N286        N  0.88078951  0.98781166  0.49711418    -0.78700
C287        C  0.89325559  0.98941569  0.96314192     0.82100
N288        N  0.91788938  0.99341977  0.96364907    -0.78600
C289        C  0.93014541  0.99539594  0.49778784     0.82200
N290        N  0.91778308  0.99361530  0.53154881    -0.80300
C291        C  0.96740681  0.04041622  0.99126133    -0.02400
C292        C  0.95678055  0.99957158  0.49844956     0.07300
C293        C  0.97203553  0.46089324  0.50811648    -0.02500
C294        C  0.99749261  0.46541160  0.51071926    -0.02500
C295        C  0.00769447  0.00819095  0.50305522     0.07400
C296        C  0.99291933  0.04458307  0.99311428    -0.02700
Br297      Br  0.00767451  0.10027173  0.98287310    -0.01300
Br298      Br  0.94692237  0.09089686  0.98027250    -0.01400
Br299      Br  0.01792464  0.41518745  0.52246502    -0.01300
Br300      Br  0.95742406  0.40423676  0.51505004    -0.01300
C301        C  0.86931541  0.44840598  0.86629490    -0.02400
C302        C  0.85937005  0.98859293  0.85054313     0.07300
C303        C  0.86185025  0.02871965  0.87271764    -0.02500
C304        C  0.87216063  0.02855624  0.91017265    -0.02500
C305        C  0.88035711  0.98865591  0.92556322     0.07400
C306        C  0.87995673  0.44804704  0.90351961    -0.02700
Br307      Br  0.89373981  0.39399180  0.92261316    -0.01300
Br308      Br  0.86920022  0.39432757  0.83446864    -0.01400
Br309      Br  0.87521867  0.08308251  0.94078505    -0.01300
Br310      Br  0.85026447  0.08408935  0.85307253    -0.01300
C311        C  0.88078753  0.02747617  0.59424424    -0.02400
C312        C  0.88018968  0.98975933  0.56888483     0.07300
C313        C  0.86916638  0.45052412  0.58224432    -0.02500
C314        C  0.85807291  0.45009857  0.61901876    -0.02500
C315        C  0.85842636  0.98826067  0.64297860     0.07400
C316        C  0.87001679  0.02676720  0.63115529    -0.02700
Br317      Br  0.87217624  0.07835628  0.66590868    -0.01300
Br318      Br  0.89620528  0.08055385  0.57814021    -0.01400
Br319      Br  0.84064051  0.39835613  0.63316444    -0.01300
Br320      Br  0.86979000  0.39779906  0.54875210    -0.01300
C321        C  0.74715974  0.14538755  0.70619618    -0.02400
C322        C  0.73777817  0.16402237  0.74114003     0.07300
C323        C  0.74494254  0.14724988  0.77683248    -0.02500
C324        C  0.76137129  0.11122937  0.77764660    -0.02500
C325        C  0.77143052  0.09328867  0.74276135     0.07400
C326        C  0.76409714  0.11005484  0.70691726    -0.02700
Br327      Br  0.77830783  0.08690555  0.65892645    -0.01300
Br328      Br  0.73759906  0.16995943  0.65762349    -0.01400
Br329      Br  0.76911735  0.08535610  0.82645371    -0.01300
Br330      Br  0.73309197  0.17513281  0.82463351    -0.01300
C331        C  0.76000710  0.37649467  0.71274699    -0.02400
C332        C  0.76970016  0.39155322  0.74873644     0.07300
C333        C  0.76143379  0.37388890  0.78339244    -0.02500
C334        C  0.74443442  0.33964887  0.78174806    -0.02500
C335        C  0.73565113  0.32340102  0.74564361     0.07400
C336        C  0.74328137  0.34191895  0.71121303    -0.02700
Br337      Br  0.73194688  0.31782982  0.66184324    -0.01300
Br338      Br  0.76895993  0.40400988  0.66552644    -0.01400
Br339      Br  0.73422234  0.31296457  0.82866145    -0.01300
Br340      Br  0.77457391  0.39405029  0.83291451    -0.01300
C341        C  0.62047607  0.25901766  0.77566527    -0.02400
C342        C  0.60730274  0.23881115  0.74477885     0.07300
C343        C  0.61979689  0.22013257  0.71227017    -0.02500
C344        C  0.64542094  0.22216209  0.71043687    -0.02500
C345        C  0.65860223  0.24224178  0.74141131     0.07400
C346        C  0.64608991  0.26049799  0.77409365    -0.02700
Br347      Br  0.66405549  0.28596580  0.81753203    -0.01300
Br348      Br  0.60346356  0.28343071  0.82080681    -0.01400
Br349      Br  0.66232334  0.19973179  0.66453367    -0.01300
Br350      Br  0.60172353  0.19361481  0.66946657    -0.01300
C351        C  0.32054778  0.25040674  0.79070074    -0.02400
C352        C  0.30718352  0.26278126  0.75787506     0.07300
C353        C  0.31943556  0.27197791  0.72343486    -0.02500
C354        C  0.34501379  0.26762656  0.72153796    -0.02500
C355        C  0.35826704  0.25347227  0.75391387     0.07400
C356        C  0.34607732  0.24553243  0.78866712    -0.02700
Br357      Br  0.36446912  0.22989912  0.83395180    -0.01300
Br358      Br  0.30394421  0.24206340  0.83891092    -0.01400
Br359      Br  0.36188334  0.28008093  0.67435779    -0.01300
Br360      Br  0.30112299  0.28910967  0.67851825    -0.01300
C361        C  0.44903051  0.09663071  0.71444515    -0.02400
C362        C  0.45417386  0.07585730  0.74935216     0.07300
C363        C  0.44581749  0.09593982  0.78459669    -0.02500
C364        C  0.43558284  0.13905049  0.78536371    -0.02500
C365        C  0.43299151  0.16174560  0.75075574     0.07400
C366        C  0.43908505  0.13990792  0.71517427    -0.02700
Br367      Br  0.43299581  0.16884143  0.66735861    -0.01300
Br368      Br  0.45252189  0.06362030  0.66582776    -0.01400
Br369      Br  0.42496127  0.16699756  0.83378065    -0.01300
Br370      Br  0.44598128  0.06281697  0.83099546    -0.01300
C371        C  0.45676880  0.38202989  0.71432699    -0.02400
C372        C  0.45682088  0.41053326  0.74777547     0.07300
C373        C  0.44482330  0.39760638  0.78146459    -0.02500
C374        C  0.43514894  0.35492920  0.78281471    -0.02500
C375        C  0.43672073  0.32534624  0.75020268     0.07400
C376        C  0.44732069  0.33915966  0.71580354    -0.02700
Br377      Br  0.44754624  0.30023904  0.67007588    -0.01300
Br378      Br  0.46639148  0.40389109  0.66525810    -0.01400
Br379      Br  0.41960226  0.33677524  0.82950861    -0.01300
Br380      Br  0.44002969  0.43909039  0.82492887    -0.01300
C381        C  0.52505330  0.13701285  0.71310344    -0.02400
C382        C  0.52950240  0.16128607  0.74802710     0.07300
C383        C  0.52416122  0.14258239  0.78359585    -0.02500
C384        C  0.51357513  0.10048205  0.78416176    -0.02500
C385        C  0.50822431  0.07687890  0.74912991     0.07400
C386        C  0.51541907  0.09421617  0.71374189    -0.02700
Br387      Br  0.51493382  0.05756891  0.66674973    -0.01300
Br388      Br  0.53218171  0.16261662  0.66433475    -0.01400
Br389      Br  0.50885066  0.07319725  0.83283560    -0.01300
Br390      Br  0.53198630  0.17434246  0.83150578    -0.01300
C391        C  0.52311323  0.39484036  0.71552084    -0.02400
C392        C  0.51077014  0.41132529  0.74909955     0.07300
C393        C  0.51123579  0.38620188  0.78256843    -0.02500
C394        C  0.52084911  0.34270946  0.78096326    -0.02500
C395        C  0.53128220  0.32487536  0.74640930     0.07400
C396        C  0.53313595  0.35156729  0.71409277    -0.02700
Br397      Br  0.54930416  0.32858835  0.66768894    -0.01300
Br398      Br  0.52754306  0.43212757  0.67223650    -0.01400
Br399      Br  0.52105823  0.30838167  0.82675807    -0.01300
Br400      Br  0.50170656  0.41340294  0.83171588    -0.01300
C401        C  0.10363136  0.47841955  0.88307964    -0.02400
C402        C  0.10901374  0.01942396  0.86499470     0.07300
C403        C  0.10446945  0.05938975  0.88692456    -0.02500
C404        C  0.09358054  0.05858897  0.92384147    -0.02500
C405        C  0.08651125  0.01825485  0.93868181     0.07400
C406        C  0.09198272  0.47799348  0.91938685    -0.02700
Br407      Br  0.08272205  0.42266355  0.94041966    -0.01300
Br408      Br  0.11248840  0.42275135  0.85691995    -0.01400
Br409      Br  0.08750769  0.11290000  0.95392234    -0.01300
Br410      Br  0.11153554  0.11586655  0.86595304    -0.01300
C411        C  0.09887613  0.47884529  0.63709367    -0.02400
C412        C  0.10407565  0.01975605  0.65590970     0.07300
C413        C  0.09716517  0.06037323  0.63974143    -0.02500
C414        C  0.08594770  0.06065848  0.60285863    -0.02500
C415        C  0.08198793  0.02065334  0.58165583     0.07400
C416        C  0.08821257  0.47930876  0.59995318    -0.02700
Br417      Br  0.08207938  0.42446946  0.57123660    -0.01300
Br418      Br  0.10534919  0.42267271  0.65994909    -0.01400
Br419      Br  0.07592116  0.11578085  0.58108954    -0.01300
Br420      Br  0.10407393  0.11600169  0.66666999    -0.01300
C421        C  0.22705754  0.15998812  0.79090893    -0.02400
C422        C  0.22948209  0.18470754  0.75770788     0.07300
C423        C  0.21503145  0.17545429  0.72471082    -0.02500
C424        C  0.19721005  0.14282124  0.72542265    -0.02500
C425        C  0.19401881  0.11896376  0.75922288     0.07400
C426        C  0.20931916  0.12710367  0.79178285    -0.02700
Br427      Br  0.20490786  0.09612848  0.83898457    -0.01300
Br428      Br  0.24697914  0.17317601  0.83599008    -0.01400
Br429      Br  0.17780146  0.13064899  0.67948819    -0.01300
Br430      Br  0.21983270  0.20789162  0.67841709    -0.01300
C431        C  0.19989224  0.39413076  0.79299845    -0.02400
C432        C  0.19249745  0.41129461  0.75733740     0.07300
C433        C  0.20337441  0.39485230  0.72245238    -0.02500
C434        C  0.22131078  0.36111368  0.72328253    -0.02500
C435        C  0.22825784  0.34359287  0.75879121     0.07400
C436        C  0.21744175  0.35977180  0.79354973    -0.02700
Br437      Br  0.22610781  0.33334760  0.84175313    -0.01300
Br438      Br  0.18693177  0.41852676  0.84144955    -0.01400
Br439      Br  0.23529273  0.33673325  0.67560958    -0.01300
Br440      Br  0.19256592  0.41593796  0.67312753    -0.01300
In441      In  0.14478658  0.51786685  0.26001334     1.36900
C442        C  0.11781825  0.01881943  0.19316356     0.77000
O443        O  0.15442715  0.58754486  0.24707110    -0.61400
O444        O  0.18051074  0.54733698  0.27523676    -0.52400
C445        C  0.12146567  0.51954985  0.32824871     0.69700
O446        O  0.11554985  0.99390431  0.29821752    -0.47200
C447        C  0.17427149  0.94798886  0.25565348     0.74400
O448        O  0.11315591  0.54360326  0.22412685    -0.59100
O449        O  0.17781280  0.98171150  0.23652395    -0.49200
O450        O  0.13555935  0.99274020  0.19811877    -0.55500
C451        C  0.17570598  0.58395622  0.26095192     0.84500
O452        O  0.13817198  0.54577444  0.32064670    -0.57400
O453        O  0.15466020  0.94902473  0.27485381    -0.60700
C454        C  0.49613220  0.95341210  0.24912989     0.01700
C455        C  0.47020510  0.95288964  0.24815193     0.01700
C456        C  0.45699367  0.49322291  0.24771456    -0.18800
C457        C  0.46897800  0.53388441  0.24835477     0.01700
C458        C  0.49487966  0.53436586  0.24875237     0.01700
C459        C  0.50813787  0.49415843  0.24913680    -0.18800
H460        H  0.52792001  0.49458252  0.24974866     0.03700
H461        H  0.43720807  0.49289656  0.24714638     0.03700
C462        C  0.42104796  0.70571986  0.24902263     0.79600
N463        N  0.43451592  0.74313643  0.24816249    -0.78700
C464        C  0.42300906  0.78345102  0.24822586     0.82100
N465        N  0.39830730  0.78607052  0.24897036    -0.78600
C466        C  0.38491739  0.74906273  0.24980207     0.82200
N467        N  0.39627413  0.70887129  0.25000064    -0.80300
C468        C  0.54288762  0.70326438  0.24842684     0.79600
N469        N  0.53077480  0.74298721  0.24795933    -0.78700
C470        C  0.54363090  0.78106850  0.24692194     0.82100
N471        N  0.56835838  0.77919380  0.24656683    -0.78600
C472        C  0.58044105  0.73983326  0.24707915     0.82200
N473        N  0.56769732  0.70187384  0.24794166    -0.80300
C474        C  0.24332653  0.72558702  0.25946191     0.79600
N475        N  0.23089251  0.76443319  0.25933923    -0.81800
C476        C  0.24283261  0.80291921  0.25848826     0.82100
N477        N  0.26763565  0.80283634  0.25759967    -0.78600
C478        C  0.28027938  0.76369022  0.25797581     0.82200
N479        N  0.26808245  0.72500096  0.25884669    -0.80300
C480        C  0.72209699  0.78190510  0.24307312     0.79600
N481        N  0.69731868  0.78175100  0.24236913    -0.78700
C482        C  0.68544975  0.74260554  0.24104114     0.82100
N483        N  0.69846018  0.70391255  0.24051075    -0.78600
C484        C  0.72321437  0.70450774  0.24109711     0.82200
N485        N  0.73491180  0.74338397  0.24248758    -0.80300
In486      In  0.82051245  0.48926560  0.24825493     1.36900
C487        C  0.84690583  0.48807879  0.31388436     0.77000
O488        O  0.80767201  0.55731133  0.26711168    -0.61400
O489        O  0.78719474  0.52131206  0.22426723    -0.52400
C490        C  0.84626227  0.48850480  0.18251110     0.69700
O491        O  0.84716506  0.95725387  0.20389404    -0.47200
C492        C  0.78829965  0.92544878  0.24805902     0.74400
O493        O  0.84881446  0.51806120  0.28990304    -0.59100
O494        O  0.78630510  0.96029445  0.26915077    -0.49200
O495        O  0.83118119  0.95942318  0.30283796    -0.55500
C496        C  0.78927277  0.55629614  0.24493908     0.84500
O497        O  0.83273093  0.52024613  0.19409726    -0.57400
O498        O  0.80720126  0.92258380  0.22715937    -0.60700
C499        C  0.07275785  0.51742966  0.47675798     0.79600
N500        N  0.08381863  0.52060415  0.01209585    -0.78700
C501        C  0.07020163  0.51935977  0.04495891     0.82100
N502        N  0.04565114  0.51452743  0.04229741    -0.78600
C503        C  0.03462834  0.51147022  0.00707227     0.82200
N504        N  0.04820439  0.51281661  0.47439176    -0.80300
C505        C  0.89349866  0.48881367  0.03288417     0.79600
N506        N  0.88113571  0.48659431  0.99855455    -0.78700
C507        C  0.89362090  0.48759317  0.46453133     0.82100
N508        N  0.91827374  0.49120588  0.46498692    -0.78600
C509        C  0.93052352  0.49346083  0.99916530     0.82200
N510        N  0.91814849  0.49221750  0.03296000    -0.80300
C511        C  0.96769471  0.53865835  0.49295481    -0.02400
C512        C  0.95714801  0.49770325  0.99977093     0.07300
C513        C  0.97157230  0.96297165  0.00753554    -0.02500
C514        C  0.99703074  0.96739181  0.01023761    -0.02500
C515        C  0.00804325  0.50656343  0.00422226     0.07400
C516        C  0.99319776  0.54293947  0.49469896    -0.02700
Br517      Br  0.00782981  0.59888089  0.48497462    -0.01300
Br518      Br  0.94708392  0.58922944  0.48274134    -0.01400
Br519      Br  0.01733058  0.91731708  0.02287857    -0.01300
Br520      Br  0.95686727  0.90651709  0.01506807    -0.01300
C521        C  0.86767394  0.94855090  0.36622897    -0.02400
C522        C  0.85966396  0.48827503  0.35200500     0.07300
C523        C  0.86085283  0.52765726  0.37556382    -0.02500
C524        C  0.87117208  0.52687024  0.41299458    -0.02500
C525        C  0.88069680  0.48714262  0.42697130     0.07400
C526        C  0.87829755  0.94875294  0.40348308    -0.02700
Br527      Br  0.89041723  0.89443349  0.42441044    -0.01300
Br528      Br  0.86575259  0.89331076  0.33628938    -0.01400
Br529      Br  0.87263378  0.58039269  0.44537641    -0.01300
Br530      Br  0.84756776  0.58275135  0.35780989    -0.01300
C531        C  0.88110901  0.52689176  0.09547831    -0.02400
C532        C  0.88052609  0.48900066  0.07032388     0.07300
C533        C  0.86877912  0.95123714  0.08060047    -0.02500
C534        C  0.85763187  0.95060297  0.11732167    -0.02500
C535        C  0.85879245  0.48798804  0.14447146     0.07400
C536        C  0.87030759  0.52645485  0.13238861    -0.02700
Br537      Br  0.87226635  0.57840006  0.16675446    -0.01300
Br538      Br  0.89654127  0.57982137  0.07908400    -0.01400
Br539      Br  0.84010058  0.89884289  0.13113330    -0.01300
Br540      Br  0.86952347  0.89863577  0.04696681    -0.01300
C541        C  0.74684648  0.64440411  0.20683368    -0.02400
C542        C  0.73775849  0.66368877  0.24173098     0.07300
C543        C  0.74516108  0.64746440  0.27751756    -0.02500
C544        C  0.76150539  0.61132954  0.27848550    -0.02500
C545        C  0.77129078  0.59274727  0.24363617     0.07400
C546        C  0.76371095  0.60894862  0.20768964    -0.02700
Br547      Br  0.77747620  0.58486019  0.15969029    -0.01300
Br548      Br  0.73702684  0.66831666  0.15811309    -0.01400
Br549      Br  0.76950093  0.58616413  0.32750076    -0.01300
Br550      Br  0.73379600  0.67629487  0.32521702    -0.01300
C551        C  0.76023238  0.87529676  0.21129694    -0.02400
C552        C  0.76961608  0.89127250  0.24721224     0.07300
C553        C  0.76106082  0.87450526  0.28206832    -0.02500
C554        C  0.74409307  0.84022892  0.28075110    -0.02500
C555        C  0.73560532  0.82308389  0.24477014     0.07400
C556        C  0.74348013  0.84076070  0.21010942    -0.02700
Br557      Br  0.73230778  0.81575247  0.16097290    -0.01300
Br558      Br  0.76962654  0.90151607  0.16369953    -0.01400
Br559      Br  0.73352384  0.81474091  0.32800878    -0.01300
Br560      Br  0.77375109  0.89596789  0.33151536    -0.01300
C561        C  0.62058829  0.75903021  0.27689067    -0.02400
C562        C  0.60730232  0.73880188  0.24614872     0.07300
C563        C  0.61966051  0.72008320  0.21352654    -0.02500
C564        C  0.64527758  0.72198310  0.21148453    -0.02500
C565        C  0.65858179  0.74198563  0.24235192     0.07400
C566        C  0.64619893  0.76039190  0.27510231    -0.02700
Br567      Br  0.66433215  0.78600613  0.31828393    -0.01300
Br568      Br  0.60373098  0.78370497  0.32207846    -0.01400
Br569      Br  0.66200243  0.69954749  0.16542323    -0.01300
Br570      Br  0.60138951  0.69377096  0.17082207    -0.01300
C571        C  0.32062911  0.74971732  0.28903710    -0.02400
C572        C  0.30711566  0.76265755  0.25652968     0.07300
C573        C  0.31923723  0.77225815  0.22206254    -0.02500
C574        C  0.34480894  0.76785692  0.21984718    -0.02500
C575        C  0.35818856  0.75307656  0.25186041     0.07400
C576        C  0.34613916  0.74459509  0.28661925    -0.02700
Br577      Br  0.36471667  0.72783864  0.33140849    -0.01300
Br578      Br  0.30427809  0.74108692  0.33741044    -0.01400
Br579      Br  0.36150671  0.78111355  0.17271504    -0.01300
Br580      Br  0.30077449  0.78996591  0.17749712    -0.01300
C581        C  0.44718807  0.59444474  0.21354554    -0.02400
C582        C  0.45426909  0.57583430  0.24865507     0.07300
C583        C  0.44776083  0.59793908  0.28400806    -0.02500
C584        C  0.43749224  0.64098983  0.28418690    -0.02500
C585        C  0.43296611  0.66152891  0.24896777     0.07400
C586        C  0.43714972  0.63763774  0.21364452    -0.02700
Br587      Br  0.42857089  0.66388103  0.16545776    -0.01300
Br588      Br  0.44840010  0.55881575  0.16599172    -0.01400
Br589      Br  0.42916199  0.67161886  0.33259236    -0.01300
Br590      Br  0.45016826  0.56732023  0.33164539    -0.01300
C591        C  0.45719806  0.88189198  0.21389008    -0.02400
C592        C  0.45681715  0.91029916  0.24742622     0.07300
C593        C  0.44444221  0.89712306  0.28070284    -0.02500
C594        C  0.43476349  0.85441530  0.28158495    -0.02500
C595        C  0.43665226  0.82505227  0.24888043     0.07400
C596        C  0.44770050  0.83900597  0.21489612    -0.02700
Br597      Br  0.44851919  0.80019800  0.16909034    -0.01300
Br598      Br  0.46754726  0.90384457  0.16523835    -0.01400
Br599      Br  0.41885059  0.83582528  0.32783140    -0.01300
Br600      Br  0.43918603  0.93818150  0.32430501    -0.01300
C601        C  0.52320189  0.63926668  0.21354315    -0.02400
C602        C  0.52952545  0.66130123  0.24878726     0.07300
C603        C  0.52613231  0.64027556  0.28391809    -0.02500
C604        C  0.51560662  0.59809773  0.28389302    -0.02500
C605        C  0.50831313  0.57680241  0.24870405     0.07400
C606        C  0.51358209  0.59641322  0.21344380    -0.02700
Br607      Br  0.51082179  0.56244555  0.16524371    -0.01300
Br608      Br  0.52807168  0.66774460  0.16535463    -0.01400
Br609      Br  0.51342171  0.56771626  0.33159208    -0.01300
Br610      Br  0.53627510  0.66922401  0.33199620    -0.01300
C611        C  0.52354909  0.89505234  0.21647432    -0.02400
C612        C  0.51077553  0.91129940  0.24973660     0.07300
C613        C  0.51083574  0.88593265  0.28305819    -0.02500
C614        C  0.52042984  0.84243296  0.28149538    -0.02500
C615        C  0.53129977  0.82486085  0.24719620     0.07400
C616        C  0.53357357  0.85178516  0.21511486    -0.02700
Br617      Br  0.55028607  0.82910154  0.16908916    -0.01300
Br618      Br  0.52855957  0.93255441  0.17352964    -0.01400
Br619      Br  0.52000549  0.80772475  0.32705025    -0.01300
Br620      Br  0.50080741  0.91283394  0.33206891    -0.01300
C621        C  0.10273529  0.97880420  0.38091151    -0.02400
C622        C  0.10964099  0.51908174  0.36701831     0.07300
C623        C  0.10466600  0.55910157  0.38863553    -0.02500
C624        C  0.09370328  0.55829590  0.42550090    -0.02500
C625        C  0.08706708  0.51786688  0.44063831     0.07400
C626        C  0.09109944  0.97843481  0.41723799    -0.02700
Br627      Br  0.08141464  0.92320313  0.43798059    -0.01300
Br628      Br  0.11116294  0.92308781  0.35446099    -0.01400
Br629      Br  0.08689472  0.61268497  0.45506826    -0.01300
Br630      Br  0.11122073  0.61559005  0.36728377    -0.01300
C631        C  0.09922978  0.97958312  0.13488636    -0.02400
C632        C  0.10391592  0.51893567  0.15783893     0.07300
C633        C  0.09697638  0.55949532  0.14161382    -0.02500
C634        C  0.08586592  0.55968340  0.10465491    -0.02500
C635        C  0.08202211  0.51963396  0.08345955     0.07400
C636        C  0.08848055  0.98019103  0.09780887    -0.02700
Br637      Br  0.08242191  0.92546665  0.06886580    -0.01300
Br638      Br  0.10592883  0.92328600  0.15738092    -0.01400
Br639      Br  0.07587536  0.61474115  0.08273812    -0.01300
Br640      Br  0.10374475  0.61517859  0.16855355    -0.01300
C641        C  0.22686686  0.66063123  0.29147203    -0.02400
C642        C  0.22930881  0.68493656  0.25803027     0.07300
C643        C  0.21487807  0.67527389  0.22508873    -0.02500
C644        C  0.19711542  0.64254515  0.22604624    -0.02500
C645        C  0.19396317  0.61900876  0.26003908     0.07400
C646        C  0.20922638  0.62759314  0.29256232    -0.02700
Br647      Br  0.20492846  0.59693281  0.33995742    -0.01300
Br648      Br  0.24659894  0.67464946  0.33658881    -0.01400
Br649      Br  0.17775488  0.62974402  0.18017619    -0.01300
Br650      Br  0.21959684  0.70733001  0.17855921    -0.01300
C651        C  0.19956478  0.89413493  0.29215751    -0.02400
C652        C  0.19231650  0.91132281  0.25642541     0.07300
C653        C  0.20338158  0.89494325  0.22166751    -0.02500
C654        C  0.22135927  0.86128660  0.22268026    -0.02500
C655        C  0.22819399  0.84378458  0.25824875     0.07400
C656        C  0.21719108  0.85989455  0.29289133    -0.02700
Br657      Br  0.22574099  0.83357008  0.34119150    -0.01300
Br658      Br  0.18627260  0.91828429  0.34046691    -0.01400
Br659      Br  0.23549537  0.83690044  0.17513025    -0.01300
Br660      Br  0.19275673  0.91595967  0.17222090    -0.01300
In661      In  0.14477965  0.51787951  0.76000406     1.36900
C662        C  0.11779887  0.01889175  0.69317937     0.77000
O663        O  0.15444961  0.58754591  0.74706983    -0.61400
O664        O  0.18052537  0.54729528  0.77520657    -0.52400
C665        C  0.12144242  0.51955582  0.82822722     0.69700
O666        O  0.11549612  0.99401443  0.79814621    -0.47200
C667        C  0.17424784  0.94797379  0.75559985     0.74400
O668        O  0.11321486  0.54380493  0.72408609    -0.59100
O669        O  0.17777797  0.98166989  0.73642841    -0.49200
O670        O  0.13546721  0.99266139  0.69817410    -0.55500
C671        C  0.17573013  0.58392669  0.76093696     0.84500
O672        O  0.13822027  0.54566086  0.82069377    -0.57400
O673        O  0.15465817  0.94905515  0.77485560    -0.60700
C674        C  0.49613638  0.95345197  0.74910536     0.01700
C675        C  0.47020938  0.95292305  0.74812790     0.01700
C676        C  0.45699847  0.49325185  0.74768718    -0.18800
C677        C  0.46897983  0.53391648  0.74832529     0.01700
C678        C  0.49488154  0.53440459  0.74871211     0.01700
C679        C  0.50814275  0.49420008  0.74909357    -0.18800
H680        H  0.52792487  0.49462862  0.74970107     0.03700
H681        H  0.43721291  0.49292074  0.74712280     0.03700
C682        C  0.42104691  0.70575026  0.74899098     0.79600
N683        N  0.43451848  0.74316278  0.74812981    -0.78700
C684        C  0.42301552  0.78348116  0.74819435     0.82100
N685        N  0.39831387  0.78610838  0.74894131    -0.78600
C686        C  0.38491982  0.74910545  0.74977359     0.82200
N687        N  0.39627304  0.70891003  0.74997120    -0.80300
C688        C  0.54288878  0.70330565  0.74836746     0.79600
N689        N  0.53078012  0.74303329  0.74790923    -0.78700
C690        C  0.54364001  0.78111072  0.74687205     0.82100
N691        N  0.56836756  0.77922749  0.74651053    -0.78600
C692        C  0.58044601  0.73986181  0.74701353     0.82200
N693        N  0.56769839  0.70190656  0.74787404    -0.80300
C694        C  0.24333730  0.72557809  0.75947263     0.79600
N695        N  0.23089123  0.76441031  0.75931720    -0.81800
C696        C  0.24281868  0.80290669  0.75843309     0.82100
N697        N  0.26762180  0.80284893  0.75754672    -0.78600
C698        C  0.28027827  0.76371715  0.75795337     0.82200
N699        N  0.26809318  0.72501715  0.75885485    -0.80300
C700        C  0.72210005  0.78190854  0.74301980     0.79600
N701        N  0.69732186  0.78174976  0.74231800    -0.78700
C702        C  0.68545533  0.74260204  0.74098893     0.82100
N703        N  0.69846782  0.70391075  0.74045894    -0.78600
C704        C  0.72322230  0.70451063  0.74104694     0.82200
N705        N  0.73491712  0.74338971  0.74243593    -0.80300
In706      In  0.82052620  0.48926482  0.74825004     1.36900
C707        C  0.84692122  0.48808179  0.81387906     0.77000
O708        O  0.80769603  0.55732927  0.76707652    -0.61400
O709        O  0.78720345  0.52130665  0.72426896    -0.52400
C710        C  0.84628322  0.48846908  0.68250816     0.69700
O711        O  0.84717699  0.95725802  0.70389668    -0.47200
C712        C  0.78830482  0.92544972  0.74803746     0.74400
O713        O  0.84883929  0.51804780  0.78988493    -0.59100
O714        O  0.78629920  0.96030600  0.76911215    -0.49200
O715        O  0.83116811  0.95943595  0.80285877    -0.55500
C716        C  0.78928927  0.55630426  0.74492006     0.84500
O717        O  0.83277109  0.52023532  0.69410091    -0.57400
O718        O  0.80721987  0.92257243  0.72716897    -0.60700
C719        C  0.07273788  0.51742495  0.97674143     0.79600
N720        N  0.08381737  0.52063693  0.51212798    -0.78700
C721        C  0.07018325  0.51937132  0.54497152     0.82100
N722        N  0.04563738  0.51449209  0.54227501    -0.78600
C723        C  0.03463659  0.51140796  0.50703457     0.82200
N724        N  0.04818049  0.51285741  0.97441067    -0.80300
C725        C  0.89352157  0.48877633  0.53287526     0.79600
N726        N  0.88114944  0.48657136  0.49855335    -0.78700
C727        C  0.89361578  0.48762501  0.96454115     0.82100
N728        N  0.91826743  0.49126308  0.96501374    -0.78600
C729        C  0.93053909  0.49338993  0.49912948     0.82200
N730        N  0.91817326  0.49215882  0.53293427    -0.80300
C731        C  0.96769728  0.53862236  0.99267743    -0.02400
C732        C  0.95716219  0.49763611  0.49971179     0.07300
C733        C  0.97158803  0.96283025  0.50712472    -0.02500
C734        C  0.99704787  0.96723793  0.50982191    -0.02500
C735        C  0.00805544  0.50649179  0.50415198     0.07400
C736        C  0.99320140  0.54289640  0.99441517    -0.02700
Br737      Br  0.00785120  0.59869250  0.98422084    -0.01300
Br738      Br  0.94710751  0.58909349  0.98205559    -0.01400
Br739      Br  0.01737182  0.91702151  0.52198899    -0.01300
Br740      Br  0.95689482  0.90626673  0.51419139    -0.01300
C741        C  0.86766034  0.94853304  0.86625227    -0.02400
C742        C  0.85967989  0.48828527  0.85199878     0.07300
C743        C  0.86087572  0.52767544  0.87554517    -0.02500
C744        C  0.87118779  0.52689510  0.91298074    -0.02500
C745        C  0.88070084  0.48716697  0.92697325     0.07400
C746        C  0.87828417  0.94873972  0.90350682    -0.02700
Br747      Br  0.89037733  0.89441544  0.92445815    -0.01300
Br748      Br  0.86571196  0.89328195  0.83633505    -0.01400
Br749      Br  0.87265009  0.58042553  0.94535179    -0.01300
Br750      Br  0.84761129  0.58277322  0.85776622    -0.01300
C751        C  0.88115282  0.52684019  0.59548997    -0.02400
C752        C  0.88055592  0.48896059  0.57032320     0.07300
C753        C  0.86882568  0.95121191  0.58062060    -0.02500
C754        C  0.85767878  0.95057714  0.61734254    -0.02500
C755        C  0.85882219  0.48794317  0.64447352     0.07400
C756        C  0.87035669  0.52639738  0.63240449    -0.02700
Br757      Br  0.87235333  0.57831315  0.66679845    -0.01300
Br758      Br  0.89658618  0.57976980  0.57910000    -0.01400
Br759      Br  0.84019632  0.89877436  0.63118409    -0.01300
Br760      Br  0.86961360  0.89858835  0.54701527    -0.01300
C761        C  0.74683330  0.64436377  0.70679968    -0.02400
C762        C  0.73776981  0.66369478  0.74169499     0.07300
C763        C  0.74520036  0.64752059  0.77748675    -0.02500
C764        C  0.76154756  0.61138993  0.77846303    -0.02500
C765        C  0.77130744  0.59275850  0.74361307     0.07400
C766        C  0.76369977  0.60891091  0.70766169    -0.02700
Br767      Br  0.77742879  0.58475853  0.65965818    -0.01300
Br768      Br  0.73697874  0.66821138  0.65807001    -0.01400
Br769      Br  0.76957948  0.58629668  0.82749473    -0.01300
Br770      Br  0.73386411  0.67640818  0.82517944    -0.01300
C771        C  0.76026767  0.87526002  0.71125153    -0.02400
C772        C  0.76961937  0.89127536  0.74717616     0.07300
C773        C  0.76102911  0.87455096  0.78202833    -0.02500
C774        C  0.74406049  0.84027594  0.78070122    -0.02500
C775        C  0.73560605  0.82308997  0.74471424     0.07400
C776        C  0.74351391  0.84072624  0.71005533    -0.02700
Br777      Br  0.73238140  0.81566915  0.66091299    -0.01300
Br778      Br  0.76970695  0.90142139  0.66365044    -0.01400
Br779      Br  0.73344842  0.81484057  0.82795767    -0.01300
Br780      Br  0.77367287  0.89606775  0.83148962    -0.01300
C781        C  0.62059497  0.75899154  0.77685144    -0.02400
C782        C  0.60730719  0.73881990  0.74608422     0.07300
C783        C  0.61966386  0.72014510  0.71344319    -0.02500
C784        C  0.64528179  0.72203191  0.71140833    -0.02500
C785        C  0.65858754  0.74198042  0.74229958     0.07400
C786        C  0.64620606  0.76034269  0.77506819    -0.02700
Br787      Br  0.66434200  0.78588660  0.81827671    -0.01300
Br788      Br  0.60373861  0.78360556  0.82206272    -0.01400
Br789      Br  0.66200690  0.69965273  0.66532911    -0.01300
Br790      Br  0.60138920  0.69391147  0.67070749    -0.01300
C791        C  0.32063024  0.74974331  0.78900938    -0.02400
C792        C  0.30711589  0.76270841  0.75651075     0.07300
C793        C  0.31923851  0.77234696  0.72205366    -0.02500
C794        C  0.34481083  0.76794833  0.71983675    -0.02500
C795        C  0.35819036  0.75312944  0.75183633     0.07400
C796        C  0.34614022  0.74461916  0.78658806    -0.02700
Br797      Br  0.36471630  0.72782169  0.83136579    -0.01300
Br798      Br  0.30428066  0.74108830  0.83737974    -0.01400
Br799      Br  0.36150913  0.78125870  0.67271886    -0.01300
Br800      Br  0.30077680  0.79009844  0.67750109    -0.01300
C801        C  0.44719387  0.59447773  0.71351470    -0.02400
C802        C  0.45426771  0.57586245  0.74862507     0.07300
C803        C  0.44774947  0.59795892  0.78397706    -0.02500
C804        C  0.43747981  0.64100922  0.78415586    -0.02500
C805        C  0.43296181  0.66155527  0.74893711     0.07400
C806        C  0.43715416  0.63766971  0.71361341    -0.02700
Br807      Br  0.42858563  0.66391783  0.66542493    -0.01300
Br808      Br  0.44841690  0.55885368  0.66595874    -0.01400
Br809      Br  0.42913984  0.67162927  0.83256084    -0.01300
Br810      Br  0.45014618  0.56733002  0.83161065    -0.01300
C811        C  0.45720393  0.88192566  0.71386326    -0.02400
C812        C  0.45682408  0.91032970  0.74740116     0.07300
C813        C  0.44445091  0.89714984  0.78067790    -0.02500
C814        C  0.43477355  0.85444076  0.78155838    -0.02500
C815        C  0.43666233  0.82507941  0.74885240     0.07400
C816        C  0.44771014  0.83903652  0.71486867    -0.02700
Br817      Br  0.44853427  0.80022879  0.66906315    -0.01300
Br818      Br  0.46754082  0.90389042  0.66520952    -0.01400
Br819      Br  0.41886176  0.83584721  0.82780442    -0.01300
Br820      Br  0.43919240  0.93820814  0.82427994    -0.01300
C821        C  0.52320295  0.63930226  0.71349092    -0.02400
C822        C  0.52952238  0.66134634  0.74873263     0.07300
C823        C  0.52612276  0.64033134  0.78386715    -0.02500
C824        C  0.51559703  0.59815347  0.78384721    -0.02500
C825        C  0.50831192  0.57684499  0.74865951     0.07400
C826        C  0.51358636  0.59644630  0.71339684    -0.02700
Br827      Br  0.51083887  0.56246347  0.66520248    -0.01300
Br828      Br  0.52806999  0.66777413  0.66529890    -0.01400
Br829      Br  0.51340160  0.56778844  0.83155314    -0.01300
Br830      Br  0.53625685  0.66929423  0.83194360    -0.01300
C831        C  0.52355149  0.89509876  0.71643808    -0.02400
C832        C  0.51078265  0.91134236  0.74970592     0.07300
C833        C  0.51085048  0.88597534  0.78302739    -0.02500
C834        C  0.52044937  0.84247874  0.78146103    -0.02500
C835        C  0.53131221  0.82490734  0.74715567     0.07400
C836        C  0.53357792  0.85183260  0.71507315    -0.02700
Br837      Br  0.55028163  0.82915204  0.66903865    -0.01300
Br838      Br  0.52855219  0.93260569  0.67349337    -0.01400
Br839      Br  0.52004145  0.80777396  0.82701857    -0.01300
Br840      Br  0.50082151  0.91287114  0.83204015    -0.01300
C841        C  0.10265746  0.97881520  0.88081998    -0.02400
C842        C  0.10960324  0.51907962  0.86698355     0.07300
C843        C  0.10469735  0.55908607  0.88865778    -0.02500
C844        C  0.09373089  0.55827352  0.92551973    -0.02500
C845        C  0.08702804  0.51785200  0.94060132     0.07400
C846        C  0.09102880  0.97843566  0.91715177    -0.02700
Br847      Br  0.08129480  0.92320663  0.93784391    -0.01300
Br848      Br  0.11100706  0.92310714  0.85429148    -0.01400
Br849      Br  0.08700403  0.61264927  0.95515335    -0.01300
Br850      Br  0.11135633  0.61557425  0.86738658    -0.01300
C851        C  0.09907733  0.97965518  0.63501706    -0.02400
C852        C  0.10388313  0.51901530  0.65786325     0.07300
C853        C  0.09704831  0.55957514  0.64154242    -0.02500
C854        C  0.08593500  0.55974209  0.60458480    -0.02500
C855        C  0.08198312  0.51966701  0.58348809     0.07400
C856        C  0.08832465  0.98024576  0.59794230    -0.02700
Br857      Br  0.08211801  0.92549794  0.56912723    -0.01300
Br858      Br  0.10562058  0.92337900  0.65764486    -0.01400
Br859      Br  0.07607083  0.61480186  0.58254831    -0.01300
Br860      Br  0.10396196  0.61527298  0.66834787    -0.01300
C861        C  0.22687864  0.66061883  0.79148816    -0.02400
C862        C  0.22933179  0.68491268  0.75804123     0.07300
C863        C  0.21492027  0.67522289  0.72508386    -0.02500
C864        C  0.19716200  0.64248624  0.72603142    -0.02500
C865        C  0.19399616  0.61896482  0.76002831     0.07400
C866        C  0.20924501  0.62756578  0.79256522    -0.02700
Br867      Br  0.20493419  0.59690595  0.83995663    -0.01300
Br868      Br  0.24658304  0.67467471  0.83662723    -0.01400
Br869      Br  0.17782465  0.62965331  0.68014359    -0.01300
Br870      Br  0.21965573  0.70725932  0.67854797    -0.01300
C871        C  0.19954956  0.89412372  0.79209737    -0.02400
C872        C  0.19228457  0.91129131  0.75636427     0.07300
C873        C  0.20332594  0.89487493  0.72159858    -0.02500
C874        C  0.22130366  0.86121650  0.72260673    -0.02500
C875        C  0.22816668  0.84375696  0.75817990     0.07400
C876        C  0.21718084  0.85989143  0.79282798    -0.02700
Br877      Br  0.22576014  0.83360732  0.84113425    -0.01300
Br878      Br  0.18626986  0.91827976  0.84041394    -0.01400
Br879      Br  0.23540125  0.83676979  0.67504890    -0.01300
Br880      Br  0.19266655  0.91584061  0.67215195    -0.01300
loop_ 
_geom_bond_atom_site_label_1 
_geom_bond_atom_site_label_2 
_geom_bond_distance 
_geom_bond_site_symmetry_2 
_ccdc_geom_bond_type 
In1           O3   2.248       .  S
In1           O4   2.217       .  S
In1          O12   2.251       .  S
In1           O8   2.273       .  S
In1         O446   2.260   1_545  S
In1         O449   2.224   1_545  S
In1         O450   2.246   1_545  S
In1         O453   2.247   1_545  S
C2           O10   1.257       .  A
C2          O448   1.261       .  A
C2          C632   1.488       .  S
O3           C11   1.263       .  A
O4           C11   1.256       .  A
C5           O12   1.258       .  A
C5          O446   1.262   1_545  A
C5          C182   1.490       .  S
O6         In441   2.260       .  S
O6          C445   1.262       .  A
C7            O9   1.258       .  A
C7           O13   1.263       .  A
C7          C212   1.473       .  S
O8          C442   1.261       .  A
O9         In441   2.224       .  S
O10        In441   2.245       .  S
C11         C205   1.472       .  S
O13        In441   2.246       .  S
C14         C172   1.494       .  S
C14          C15   1.420       .  A
C14         C459   1.407       .  A
C15         C152   1.493       .  S
C15         C456   1.406       .  A
C16          C17   1.405   1_565  A
C16         C455   1.407       .  A
C16          H21   1.084       .  S
C17         C142   1.492       .  S
C17          C18   1.419       .  A
C18         C165   1.493       .  S
C18          C19   1.407   1_545  A
C19         C454   1.407       .  A
C19          H20   1.084       .  S
C22         C145   1.479       .  S
C22          N23   1.365       .  A
C22          N27   1.359       .  A
N23          C24   1.364       .  A
C24         C155   1.475       .  S
C24          N25   1.354       .  A
N25          C26   1.351       .  A
C26         C135   1.468       .  S
C26          N27   1.357       .  A
C28         C162   1.479       .  S
C28          N29   1.364       .  A
C28          N33   1.359       .  A
N29          C30   1.364       .  A
C30         C175   1.477       .  S
C30          N31   1.354       .  A
N31          C32   1.353       .  A
C32         C122   1.472       .  S
C32          N33   1.357       .  A
C34         C202   1.461       .  S
C34          N35   1.349       .  A
C34          N39   1.356       .  A
N35          C36   1.348       .  A
C36         C215   1.461       .  S
C36          N37   1.358       .  A
N37          C38   1.362       .  A
C38         C132   1.469       .  S
C38          N39   1.360       .  A
C40         C115   1.460       .  S
C40          N41   1.357       .  A
C40          N45   1.349       .  A
N41          C42   1.361       .  A
C42         C125   1.473       .  S
C42          N43   1.359       .  A
N43          C44   1.356       .  A
C44         C102   1.458       .  S
C44          N45   1.349       .  A
In46         O48   2.236   1_565  S
In46         O49   2.223   1_565  S
In46         O57   2.237   1_565  S
In46         O53   2.270   1_565  S
In46        O491   2.268       .  S
In46        O494   2.225       .  S
In46        O495   2.246       .  S
In46        O498   2.231       .  S
C47          O53   1.261   1_565  A
C47         O495   1.256       .  A
C47          C82   1.487       .  S
O48          C56   1.263       .  A
O49          C56   1.258       .  A
C50          O57   1.256   1_565  A
C50         O491   1.262       .  A
C50          C95   1.483       .  S
O51        In486   2.270       .  S
O51         C490   1.262       .  A
C52          O54   1.259       .  A
C52          O58   1.263       .  A
C52         C112   1.468       .  S
O54        In486   2.228       .  S
O55        In486   2.246       .  S
O55         C487   1.256       .  A
C56         C105   1.467       .  S
O58        In486   2.229       .  S
C59         C185   1.477       .  S
C59          N64   1.356       .  A
C59         N280   1.362       .  A
N60          C61   1.363       .  A
N60         C279   1.362   1_554  A
C61         C195   1.477       .  S
C61          N62   1.358       .  A
N62          C63   1.357       .  A
C63          C75   1.469       .  S
C63         N284   1.355   1_554  A
N64         C283   1.355       .  A
C65          C92   1.477       .  S
C65          N66   1.363   1_554  A
C65          N70   1.356       .  A
N66         C287   1.363       .  A
C67          C85   1.475       .  S
C67          N68   1.357       .  A
C67         N286   1.363       .  A
N68         C289   1.355       .  A
C69          C72   1.466       .  S
C69          N70   1.354   1_556  A
C69         N288   1.355       .  A
C71          C76   1.406       .  A
C71         C292   1.408   1_545  A
C71         Br78   1.930       .  S
C72         C291   1.408   1_565  A
C72         C513   1.407   1_556  A
C73          C74   1.405       .  A
C73         C512   1.407   1_554  A
C73         Br80   1.930       .  S
C74         C515   1.409   1_655  A
C74         Br79   1.928   1_655  S
C75         C514   1.409   1_445  A
C75         C296   1.408   1_454  A
C76         C295   1.408   1_655  A
C76         Br77   1.930   1_655  S
C81          C86   1.410       .  A
C81         C522   1.417       .  A
C81         Br88   1.932       .  S
C82          C83   1.416   1_565  A
C82         C521   1.417       .  A
C83          C84   1.410       .  A
C83         Br90   1.931       .  S
C84          C85   1.406   1_545  A
C84         Br89   1.931       .  S
C85         C526   1.406       .  A
C86         C525   1.407       .  A
C86         Br87   1.931       .  S
C91          C92   1.409   1_545  A
C91          C96   1.408       .  A
C91         Br98   1.933       .  S
C92         C533   1.408       .  A
C93          C94   1.411       .  A
C93         C532   1.408       .  A
C93        Br100   1.930       .  S
C94         C535   1.415       .  A
C94         Br99   1.931       .  S
C95          C96   1.414   1_565  A
C95         C534   1.415       .  A
C96         Br97   1.933       .  S
C101        C102   1.405       .  A
C101        C106   1.404       .  A
C101       Br108   1.931       .  S
C102        C103   1.405       .  A
C103        C104   1.402       .  A
C103       Br110   1.930       .  S
C104        C105   1.410       .  A
C104       Br109   1.932       .  S
C105        C106   1.412       .  A
C106       Br107   1.932       .  S
C111        C112   1.410       .  A
C111        C116   1.403       .  A
C111       Br118   1.932       .  S
C112        C113   1.411       .  A
C113        C114   1.405       .  A
C113       Br120   1.932       .  S
C114        C115   1.407       .  A
C114       Br119   1.931       .  S
C115        C116   1.405       .  A
C116       Br117   1.930       .  S
C121        C122   1.409       .  A
C121        C126   1.406       .  A
C121       Br128   1.931       .  S
C122        C123   1.409       .  A
C123        C124   1.407       .  A
C123       Br130   1.930       .  S
C124        C125   1.410       .  A
C124       Br129   1.930       .  S
C125        C126   1.410       .  A
C126       Br127   1.931       .  S
C131        C132   1.408       .  A
C131        C136   1.405       .  A
C131       Br138   1.928       .  S
C132        C133   1.408       .  A
C133        C134   1.406       .  A
C133       Br140   1.929       .  S
C134        C135   1.409       .  A
C134       Br139   1.931       .  S
C135        C136   1.407       .  A
C136       Br137   1.929       .  S
C141        C142   1.409       .  A
C141        C146   1.409       .  A
C141       Br148   1.925       .  S
C142        C143   1.411       .  A
C143        C144   1.410       .  A
C143       Br150   1.927       .  S
C144        C145   1.410       .  A
C144       Br149   1.928       .  S
C145        C146   1.408       .  A
C146       Br147   1.928       .  S
C151        C152   1.412       .  A
C151        C156   1.409       .  A
C151       Br158   1.925       .  S
C152        C153   1.412       .  A
C153        C154   1.408       .  A
C153       Br160   1.931       .  S
C154        C155   1.410       .  A
C154       Br159   1.932       .  S
C155        C156   1.407       .  A
C156       Br157   1.929       .  S
C161        C162   1.408       .  A
C161        C166   1.409       .  A
C161       Br168   1.928       .  S
C162        C163   1.409       .  A
C163        C164   1.411       .  A
C163       Br170   1.928       .  S
C164        C165   1.411       .  A
C164       Br169   1.925       .  S
C165        C166   1.411       .  A
C166       Br167   1.926       .  S
C171        C172   1.412       .  A
C171        C176   1.410       .  A
C171       Br178   1.931       .  S
C172        C173   1.411       .  A
C173        C174   1.408       .  A
C173       Br180   1.924       .  S
C174        C175   1.407       .  A
C174       Br179   1.930       .  S
C175        C176   1.411       .  A
C176       Br177   1.931       .  S
C181        C186   1.410       .  A
C181        C622   1.417       .  A
C181       Br188   1.932       .  S
C182        C183   1.418       .  A
C182        C621   1.417   1_545  A
C183        C184   1.411       .  A
C183       Br190   1.932       .  S
C184        C185   1.406       .  A
C184       Br189   1.931       .  S
C185        C626   1.407   1_545  A
C186        C625   1.407       .  A
C186       Br187   1.931       .  S
C191        C196   1.408       .  A
C191        C632   1.416       .  A
C191       Br198   1.932       .  S
C192        C442   1.489       .  S
C192        C193   1.417       .  A
C192        C631   1.416   1_545  A
C193        C194   1.413       .  A
C193       Br200   1.931       .  S
C194        C195   1.408       .  A
C194       Br199   1.930       .  S
C195        C636   1.406   1_545  A
C196        C635   1.406       .  A
C196       Br197   1.931       .  S
C201        C202   1.404       .  A
C201        C206   1.405       .  A
C201       Br208   1.930       .  S
C202        C203   1.406       .  A
C203        C204   1.402       .  A
C203       Br210   1.933       .  S
C204        C205   1.412       .  A
C204       Br209   1.932       .  S
C205        C206   1.416       .  A
C206       Br207   1.934       .  S
C211        C212   1.412       .  A
C211        C216   1.404       .  A
C211       Br218   1.932       .  S
C212        C213   1.413       .  A
C213        C214   1.405       .  A
C213       Br220   1.932       .  S
C214        C215   1.406       .  A
C214       Br219   1.930       .  S
C215        C216   1.406       .  A
C216       Br217   1.932       .  S
In221       O223   2.248       .  S
In221       O224   2.217       .  S
In221       O232   2.251       .  S
In221       O666   2.260   1_545  S
In221       O228   2.272       .  S
In221       O669   2.224   1_545  S
In221       O670   2.246   1_545  S
In221       O673   2.247   1_545  S
C222        O668   1.261       .  A
C222        O230   1.257       .  A
C222        C852   1.488       .  S
O223        C231   1.263       .  A
O224        C231   1.256       .  A
C225        O232   1.258       .  A
C225        O666   1.262   1_545  A
C225        C402   1.490       .  S
O226       In661   2.260       .  S
O226        C665   1.262       .  A
C227        O229   1.258       .  A
C227        O233   1.263       .  A
C227        C432   1.473       .  S
O228        C662   1.261       .  A
O229       In661   2.224       .  S
O230       In661   2.245       .  S
C231        C425   1.472       .  S
O233       In661   2.246       .  S
C234        C392   1.494       .  S
C234        C235   1.420       .  A
C234        C679   1.407       .  A
C235        C372   1.493       .  S
C235        C676   1.406       .  A
C236        C675   1.407       .  A
C236        C237   1.405   1_565  A
C236        H241   1.084       .  S
C237        C362   1.492       .  S
C237        C238   1.419       .  A
C238        C385   1.493       .  S
C238        C239   1.407   1_545  A
C239        C674   1.407       .  A
C239        H240   1.084       .  S
C242        C365   1.479       .  S
C242        N243   1.365       .  A
C242        N247   1.359       .  A
N243        C244   1.364       .  A
C244        C375   1.475       .  S
C244        N245   1.354       .  A
N245        C246   1.351       .  A
C246        C355   1.468       .  S
C246        N247   1.357       .  A
C248        C382   1.479       .  S
C248        N249   1.364       .  A
C248        N253   1.359       .  A
N249        C250   1.364       .  A
C250        C395   1.477       .  S
C250        N251   1.354       .  A
N251        C252   1.353       .  A
C252        C342   1.472       .  S
C252        N253   1.357       .  A
C254        C422   1.461       .  S
C254        N255   1.349       .  A
C254        N259   1.356       .  A
N255        C256   1.348       .  A
C256        C435   1.461       .  S
C256        N257   1.358       .  A
N257        C258   1.362       .  A
C258        C352   1.469       .  S
C258        N259   1.360       .  A
C260        C335   1.460       .  S
C260        N261   1.357       .  A
C260        N265   1.349       .  A
N261        C262   1.361       .  A
C262        C345   1.473       .  S
C262        N263   1.359       .  A
N263        C264   1.356       .  A
C264        C322   1.458       .  S
C264        N265   1.349       .  A
In266       O268   2.236   1_565  S
In266       O269   2.223   1_565  S
In266       O277   2.237   1_565  S
In266       O711   2.268       .  S
In266       O273   2.270   1_565  S
In266       O714   2.225       .  S
In266       O715   2.246       .  S
In266       O718   2.231       .  S
C267        O273   1.261   1_565  A
C267        O715   1.256       .  A
C267        C302   1.487       .  S
O268        C276   1.263       .  A
O269        C276   1.258       .  A
C270        O277   1.256   1_565  A
C270        O711   1.262       .  A
C270        C315   1.484       .  S
O271       In706   2.270       .  S
O271        C710   1.262       .  A
C272        O274   1.260       .  A
C272        O278   1.263       .  A
C272        C332   1.468       .  S
O274       In706   2.228       .  S
O275       In706   2.247       .  S
O275        C707   1.256       .  A
C276        C325   1.467       .  S
O278       In706   2.229       .  S
C279        C405   1.477       .  S
C279        N284   1.356       .  A
N280        C281   1.363       .  A
C281        C415   1.477       .  S
C281        N282   1.358       .  A
N282        C283   1.357       .  A
C283        C295   1.469       .  S
C285        C312   1.477       .  S
C285        N286   1.363       .  A
C285        N290   1.356       .  A
C287        C305   1.475       .  S
C287        N288   1.357       .  A
C289        C292   1.466       .  S
C289        N290   1.354       .  A
C291        C296   1.406       .  A
C291       Br298   1.930       .  S
C292        C733   1.407       .  A
C293        C732   1.407       .  A
C293        C294   1.405       .  A
C293       Br300   1.930       .  S
C294        C735   1.409   1_655  A
C294       Br299   1.928   1_655  S
C295        C734   1.409   1_445  A
C296       Br297   1.930   1_655  S
C301        C742   1.417       .  A
C301        C306   1.410       .  A
C301       Br308   1.932       .  S
C302        C741   1.417       .  A
C302        C303   1.416   1_565  A
C303        C304   1.410       .  A
C303       Br310   1.931       .  S
C304        C305   1.406   1_545  A
C304       Br309   1.931       .  S
C305        C746   1.406       .  A
C306        C745   1.407       .  A
C306       Br307   1.931       .  S
C311        C312   1.409   1_545  A
C311        C316   1.408       .  A
C311       Br318   1.932       .  S
C312        C753   1.408       .  A
C313        C752   1.408       .  A
C313        C314   1.411       .  A
C313       Br320   1.930       .  S
C314        C755   1.415       .  A
C314       Br319   1.931       .  S
C315        C754   1.415       .  A
C315        C316   1.414   1_565  A
C316       Br317   1.933       .  S
C321        C322   1.405       .  A
C321        C326   1.404       .  A
C321       Br328   1.931       .  S
C322        C323   1.405       .  A
C323        C324   1.402       .  A
C323       Br330   1.930       .  S
C324        C325   1.410       .  A
C324       Br329   1.932       .  S
C325        C326   1.412       .  A
C326       Br327   1.932       .  S
C331        C332   1.410       .  A
C331        C336   1.403       .  A
C331       Br338   1.932       .  S
C332        C333   1.411       .  A
C333        C334   1.405       .  A
C333       Br340   1.932       .  S
C334        C335   1.407       .  A
C334       Br339   1.931       .  S
C335        C336   1.405       .  A
C336       Br337   1.930       .  S
C341        C342   1.409       .  A
C341        C346   1.406       .  A
C341       Br348   1.931       .  S
C342        C343   1.409       .  A
C343        C344   1.407       .  A
C343       Br350   1.930       .  S
C344        C345   1.410       .  A
C344       Br349   1.930       .  S
C345        C346   1.410       .  A
C346       Br347   1.931       .  S
C351        C352   1.408       .  A
C351        C356   1.405       .  A
C351       Br358   1.928       .  S
C352        C353   1.408       .  A
C353        C354   1.406       .  A
C353       Br360   1.929       .  S
C354        C355   1.409       .  A
C354       Br359   1.931       .  S
C355        C356   1.407       .  A
C356       Br357   1.929       .  S
C361        C362   1.409       .  A
C361        C366   1.409       .  A
C361       Br368   1.925       .  S
C362        C363   1.411       .  A
C363        C364   1.410       .  A
C363       Br370   1.927       .  S
C364        C365   1.410       .  A
C364       Br369   1.928       .  S
C365        C366   1.408       .  A
C366       Br367   1.928       .  S
C371        C372   1.412       .  A
C371        C376   1.409       .  A
C371       Br378   1.925       .  S
C372        C373   1.412       .  A
C373        C374   1.408       .  A
C373       Br380   1.931       .  S
C374        C375   1.410       .  A
C374       Br379   1.932       .  S
C375        C376   1.407       .  A
C376       Br377   1.929       .  S
C381        C382   1.408       .  A
C381        C386   1.409       .  A
C381       Br388   1.929       .  S
C382        C383   1.409       .  A
C383        C384   1.411       .  A
C383       Br390   1.928       .  S
C384        C385   1.411       .  A
C384       Br389   1.925       .  S
C385        C386   1.411       .  A
C386       Br387   1.926       .  S
C391        C392   1.412       .  A
C391        C396   1.410       .  A
C391       Br398   1.931       .  S
C392        C393   1.411       .  A
C393        C394   1.408       .  A
C393       Br400   1.924       .  S
C394        C395   1.407       .  A
C394       Br399   1.930       .  S
C395        C396   1.411       .  A
C396       Br397   1.931       .  S
C401        C842   1.417       .  A
C401        C406   1.410       .  A
C401       Br408   1.932       .  S
C402        C841   1.417   1_545  A
C402        C403   1.418       .  A
C403        C404   1.411       .  A
C403       Br410   1.932       .  S
C404        C405   1.406       .  A
C404       Br409   1.931       .  S
C405        C846   1.407   1_545  A
C406        C845   1.407       .  A
C406       Br407   1.931       .  S
C411        C852   1.416       .  A
C411        C416   1.408       .  A
C411       Br418   1.932       .  S
C412        C662   1.489       .  S
C412        C851   1.416   1_545  A
C412        C413   1.417       .  A
C413        C414   1.413       .  A
C413       Br420   1.931       .  S
C414        C415   1.408       .  A
C414       Br419   1.930       .  S
C415        C856   1.406   1_545  A
C416        C855   1.406       .  A
C416       Br417   1.931       .  S
C421        C422   1.404       .  A
C421        C426   1.405       .  A
C421       Br428   1.930       .  S
C422        C423   1.406       .  A
C423        C424   1.402       .  A
C423       Br430   1.933       .  S
C424        C425   1.412       .  A
C424       Br429   1.932       .  S
C425        C426   1.416       .  A
C426       Br427   1.934       .  S
C431        C432   1.413       .  A
C431        C436   1.404       .  A
C431       Br438   1.932       .  S
C432        C433   1.413       .  A
C433        C434   1.405       .  A
C433       Br440   1.932       .  S
C434        C435   1.406       .  A
C434       Br439   1.930       .  S
C435        C436   1.406       .  A
C436       Br437   1.932       .  S
In441       O443   2.248       .  S
In441       O444   2.217       .  S
In441       O452   2.252       .  S
In441       O448   2.272       .  S
C442        O450   1.257   1_545  A
O443        C451   1.263       .  A
O444        C451   1.256       .  A
C445        O452   1.258       .  A
C445        C622   1.490       .  S
C447        O449   1.258       .  A
C447        O453   1.263       .  A
C447        C652   1.474       .  S
C451        C645   1.473       .  S
C454        C612   1.495       .  S
C454        C455   1.420       .  A
C455        C592   1.494       .  S
C456        C457   1.405       .  A
C456        H461   1.084       .  S
C457        C582   1.491       .  S
C457        C458   1.419       .  A
C458        C605   1.492       .  S
C458        C459   1.407       .  A
C459        H460   1.084       .  S
C462        C585   1.478       .  S
C462        N463   1.364       .  A
C462        N467   1.359       .  A
N463        C464   1.363       .  A
C464        C595   1.475       .  S
C464        N465   1.354       .  A
N465        C466   1.352       .  A
C466        C575   1.468       .  S
C466        N467   1.357       .  A
C468        C602   1.478       .  S
C468        N469   1.364       .  A
C468        N473   1.359       .  A
N469        C470   1.364       .  A
C470        C615   1.477       .  S
C470        N471   1.354       .  A
N471        C472   1.353       .  A
C472        C562   1.471       .  S
C472        N473   1.357       .  A
C474        C642   1.461       .  S
C474        N475   1.348       .  A
C474        N479   1.356       .  A
N475        C476   1.348       .  A
C476        C655   1.462       .  S
C476        N477   1.359       .  A
N477        C478   1.362       .  A
C478        C572   1.470       .  S
C478        N479   1.360       .  A
C480        C555   1.460       .  S
C480        N481   1.357       .  A
C480        N485   1.350       .  A
N481        C482   1.361       .  A
C482        C565   1.473       .  S
C482        N483   1.359       .  A
N483        C484   1.356       .  A
C484        C542   1.459       .  S
C484        N485   1.349       .  A
In486       O488   2.235       .  S
In486       O489   2.225       .  S
In486       O497   2.238       .  S
In486       O493   2.271       .  S
C487        O493   1.261       .  A
C487        C522   1.488       .  S
O488        C496   1.263       .  A
O489        C496   1.258       .  A
C490        O497   1.255       .  A
C490        C535   1.484       .  S
C492        O494   1.259       .  A
C492        O498   1.264       .  A
C492        C552   1.468       .  S
C496        C545   1.468       .  S
C499        C625   1.476       .  S
C499        N720   1.362       .  A
C499        N504   1.356       .  A
N500        C719   1.362   1_554  A
N500        C501   1.363       .  A
C501        C635   1.477       .  S
C501        N502   1.357       .  A
N502        C503   1.356       .  A
C503        C515   1.469       .  S
C503        N724   1.355   1_554  A
N504        C723   1.355       .  A
C505        C532   1.477       .  S
C505        N506   1.363   1_554  A
C505        N510   1.356       .  A
N506        C727   1.363       .  A
C507        C525   1.475       .  S
C507        N726   1.363       .  A
C507        N508   1.356       .  A
N508        C729   1.355       .  A
C509        C512   1.466       .  S
C509        N728   1.355       .  A
C509        N510   1.354   1_556  A
C511        C732   1.408       .  A
C511        C516   1.406       .  A
C511       Br518   1.930       .  S
C512        C731   1.408       .  A
C513        C514   1.405       .  A
C513       Br520   1.931       .  S
C514       Br519   1.928   1_655  S
C515        C736   1.408   1_454  A
C516        C735   1.408   1_655  A
C516       Br517   1.930   1_655  S
C521        C526   1.410       .  A
C521       Br528   1.932       .  S
C522        C523   1.416       .  A
C523        C524   1.410       .  A
C523       Br530   1.931       .  S
C524        C525   1.406       .  A
C524       Br529   1.931       .  S
C526       Br527   1.931       .  S
C531        C532   1.409       .  A
C531        C536   1.408       .  A
C531       Br538   1.932       .  S
C533        C534   1.411       .  A
C533       Br540   1.930       .  S
C534       Br539   1.931       .  S
C535        C536   1.414       .  A
C536       Br537   1.933       .  S
C541        C542   1.405       .  A
C541        C546   1.405       .  A
C541       Br548   1.931       .  S
C542        C543   1.405       .  A
C543        C544   1.402       .  A
C543       Br550   1.930       .  S
C544        C545   1.410       .  A
C544       Br549   1.932       .  S
C545        C546   1.413       .  A
C546       Br547   1.932       .  S
C551        C552   1.410       .  A
C551        C556   1.403       .  A
C551       Br558   1.932       .  S
C552        C553   1.411       .  A
C553        C554   1.405       .  A
C553       Br560   1.932       .  S
C554        C555   1.407       .  A
C554       Br559   1.930       .  S
C555        C556   1.405       .  A
C556       Br557   1.930       .  S
C561        C562   1.409       .  A
C561        C566   1.406       .  A
C561       Br568   1.931       .  S
C562        C563   1.409       .  A
C563        C564   1.407       .  A
C563       Br570   1.931       .  S
C564        C565   1.410       .  A
C564       Br569   1.930       .  S
C565        C566   1.410       .  A
C566       Br567   1.931       .  S
C571        C572   1.408       .  A
C571        C576   1.405       .  A
C571       Br578   1.928       .  S
C572        C573   1.409       .  A
C573        C574   1.406       .  A
C573       Br580   1.929       .  S
C574        C575   1.409       .  A
C574       Br579   1.931       .  S
C575        C576   1.407       .  A
C576       Br577   1.930       .  S
C581        C582   1.409       .  A
C581        C586   1.409       .  A
C581       Br588   1.926       .  S
C582        C583   1.410       .  A
C583        C584   1.410       .  A
C583       Br590   1.926       .  S
C584        C585   1.409       .  A
C584       Br589   1.928       .  S
C585        C586   1.408       .  A
C586       Br587   1.928       .  S
C591        C592   1.412       .  A
C591        C596   1.409       .  A
C591       Br598   1.924       .  S
C592        C593   1.412       .  A
C593        C594   1.408       .  A
C593       Br600   1.930       .  S
C594        C595   1.410       .  A
C594       Br599   1.932       .  S
C595        C596   1.407       .  A
C596       Br597   1.929       .  S
C601        C602   1.408       .  A
C601        C606   1.409       .  A
C601       Br608   1.929       .  S
C602        C603   1.409       .  A
C603        C604   1.410       .  A
C603       Br610   1.928       .  S
C604        C605   1.411       .  A
C604       Br609   1.926       .  S
C605        C606   1.411       .  A
C606       Br607   1.925       .  S
C611        C612   1.413       .  A
C611        C616   1.410       .  A
C611       Br618   1.930       .  S
C612        C613   1.411       .  A
C613        C614   1.408       .  A
C613       Br620   1.924       .  S
C614        C615   1.407       .  A
C614       Br619   1.930       .  S
C615        C616   1.411       .  A
C616       Br617   1.931       .  S
C621        C626   1.410       .  A
C621       Br628   1.932       .  S
C622        C623   1.418       .  A
C623        C624   1.411       .  A
C623       Br630   1.932       .  S
C624        C625   1.406       .  A
C624       Br629   1.931       .  S
C626       Br627   1.931       .  S
C631        C636   1.408       .  A
C631       Br638   1.932       .  S
C632        C633   1.417       .  A
C633        C634   1.412       .  A
C633       Br640   1.931       .  S
C634        C635   1.408       .  A
C634       Br639   1.930       .  S
C636       Br637   1.931       .  S
C641        C642   1.404       .  A
C641        C646   1.405       .  A
C641       Br648   1.929       .  S
C642        C643   1.406       .  A
C643        C644   1.403       .  A
C643       Br650   1.933       .  S
C644        C645   1.412       .  A
C644       Br649   1.932       .  S
C645        C646   1.416       .  A
C646       Br647   1.934       .  S
C651        C652   1.413       .  A
C651        C656   1.405       .  A
C651       Br658   1.932       .  S
C652        C653   1.413       .  A
C653        C654   1.405       .  A
C653       Br660   1.932       .  S
C654        C655   1.406       .  A
C654       Br659   1.930       .  S
C655        C656   1.406       .  A
C656       Br657   1.932       .  S
In661       O663   2.248       .  S
In661       O664   2.217       .  S
In661       O672   2.252       .  S
In661       O668   2.272       .  S
C662        O670   1.257   1_545  A
O663        C671   1.263       .  A
O664        C671   1.256       .  A
C665        O672   1.258       .  A
C665        C842   1.490       .  S
C667        O669   1.258       .  A
C667        O673   1.263       .  A
C667        C872   1.474       .  S
C671        C865   1.473       .  S
C674        C832   1.495       .  S
C674        C675   1.420       .  A
C675        C812   1.494       .  S
C676        C677   1.405       .  A
C676        H681   1.084       .  S
C677        C802   1.491       .  S
C677        C678   1.419       .  A
C678        C825   1.492       .  S
C678        C679   1.407       .  A
C679        H680   1.084       .  S
C682        C805   1.478       .  S
C682        N683   1.364       .  A
C682        N687   1.359       .  A
N683        C684   1.363       .  A
C684        C815   1.475       .  S
C684        N685   1.354       .  A
N685        C686   1.352       .  A
C686        C795   1.468       .  S
C686        N687   1.357       .  A
C688        C822   1.478       .  S
C688        N689   1.364       .  A
C688        N693   1.359       .  A
N689        C690   1.364       .  A
C690        C835   1.477       .  S
C690        N691   1.354       .  A
N691        C692   1.353       .  A
C692        C782   1.471       .  S
C692        N693   1.357       .  A
C694        C862   1.461       .  S
C694        N695   1.348       .  A
C694        N699   1.356       .  A
N695        C696   1.348       .  A
C696        C875   1.462       .  S
C696        N697   1.359       .  A
N697        C698   1.362       .  A
C698        C792   1.470       .  S
C698        N699   1.360       .  A
C700        C775   1.460       .  S
C700        N701   1.357       .  A
C700        N705   1.350       .  A
N701        C702   1.361       .  A
C702        C785   1.473       .  S
C702        N703   1.359       .  A
N703        C704   1.356       .  A
C704        C762   1.459       .  S
C704        N705   1.349       .  A
In706       O708   2.235       .  S
In706       O709   2.225       .  S
In706       O717   2.238       .  S
In706       O713   2.271       .  S
C707        O713   1.261       .  A
C707        C742   1.488       .  S
O708        C716   1.263       .  A
O709        C716   1.258       .  A
C710        O717   1.255       .  A
C710        C755   1.484       .  S
C712        O714   1.259       .  A
C712        O718   1.264       .  A
C712        C772   1.468       .  S
C716        C765   1.468       .  S
C719        C845   1.476       .  S
C719        N724   1.356       .  A
N720        C721   1.363       .  A
C721        C855   1.477       .  S
C721        N722   1.357       .  A
N722        C723   1.356       .  A
C723        C735   1.469       .  S
C725        C752   1.477       .  S
C725        N726   1.363       .  A
C725        N730   1.356       .  A
C727        C745   1.475       .  S
C727        N728   1.356       .  A
C729        C732   1.466       .  S
C729        N730   1.354       .  A
C731        C736   1.406       .  A
C731       Br738   1.930       .  S
C733        C734   1.405       .  A
C733       Br740   1.931       .  S
C734       Br739   1.928   1_655  S
C736       Br737   1.930   1_655  S
C741        C746   1.410       .  A
C741       Br748   1.932       .  S
C742        C743   1.416       .  A
C743        C744   1.410       .  A
C743       Br750   1.931       .  S
C744        C745   1.406       .  A
C744       Br749   1.931       .  S
C746       Br747   1.931       .  S
C751        C752   1.409       .  A
C751        C756   1.408       .  A
C751       Br758   1.932       .  S
C753        C754   1.411       .  A
C753       Br760   1.930       .  S
C754       Br759   1.931       .  S
C755        C756   1.414       .  A
C756       Br757   1.933       .  S
C761        C762   1.405       .  A
C761        C766   1.405       .  A
C761       Br768   1.931       .  S
C762        C763   1.405       .  A
C763        C764   1.402       .  A
C763       Br770   1.930       .  S
C764        C765   1.410       .  A
C764       Br769   1.932       .  S
C765        C766   1.413       .  A
C766       Br767   1.932       .  S
C771        C772   1.410       .  A
C771        C776   1.403       .  A
C771       Br778   1.932       .  S
C772        C773   1.411       .  A
C773        C774   1.405       .  A
C773       Br780   1.932       .  S
C774        C775   1.407       .  A
C774       Br779   1.930       .  S
C775        C776   1.405       .  A
C776       Br777   1.930       .  S
C781        C782   1.409       .  A
C781        C786   1.406       .  A
C781       Br788   1.931       .  S
C782        C783   1.409       .  A
C783        C784   1.407       .  A
C783       Br790   1.931       .  S
C784        C785   1.410       .  A
C784       Br789   1.930       .  S
C785        C786   1.410       .  A
C786       Br787   1.931       .  S
C791        C792   1.408       .  A
C791        C796   1.405       .  A
C791       Br798   1.928       .  S
C792        C793   1.409       .  A
C793        C794   1.406       .  A
C793       Br800   1.929       .  S
C794        C795   1.409       .  A
C794       Br799   1.931       .  S
C795        C796   1.407       .  A
C796       Br797   1.930       .  S
C801        C802   1.409       .  A
C801        C806   1.409       .  A
C801       Br808   1.926       .  S
C802        C803   1.410       .  A
C803        C804   1.410       .  A
C803       Br810   1.926       .  S
C804        C805   1.409       .  A
C804       Br809   1.928       .  S
C805        C806   1.408       .  A
C806       Br807   1.928       .  S
C811        C812   1.412       .  A
C811        C816   1.409       .  A
C811       Br818   1.924       .  S
C812        C813   1.412       .  A
C813        C814   1.408       .  A
C813       Br820   1.930       .  S
C814        C815   1.410       .  A
C814       Br819   1.932       .  S
C815        C816   1.407       .  A
C816       Br817   1.929       .  S
C821        C822   1.408       .  A
C821        C826   1.409       .  A
C821       Br828   1.929       .  S
C822        C823   1.409       .  A
C823        C824   1.410       .  A
C823       Br830   1.928       .  S
C824        C825   1.411       .  A
C824       Br829   1.926       .  S
C825        C826   1.411       .  A
C826       Br827   1.925       .  S
C831        C832   1.413       .  A
C831        C836   1.410       .  A
C831       Br838   1.930       .  S
C832        C833   1.411       .  A
C833        C834   1.408       .  A
C833       Br840   1.924       .  S
C834        C835   1.407       .  A
C834       Br839   1.930       .  S
C835        C836   1.411       .  A
C836       Br837   1.931       .  S
C841        C846   1.410       .  A
C841       Br848   1.932       .  S
C842        C843   1.418       .  A
C843        C844   1.411       .  A
C843       Br850   1.932       .  S
C844        C845   1.406       .  A
C844       Br849   1.931       .  S
C846       Br847   1.931       .  S
C851        C856   1.408       .  A
C851       Br858   1.932       .  S
C852        C853   1.417       .  A
C853        C854   1.412       .  A
C853       Br860   1.931       .  S
C854        C855   1.408       .  A
C854       Br859   1.930       .  S
C856       Br857   1.931       .  S
C861        C862   1.404       .  A
C861        C866   1.405       .  A
C861       Br868   1.929       .  S
C862        C863   1.406       .  A
C863        C864   1.403       .  A
C863       Br870   1.933       .  S
C864        C865   1.412       .  A
C864       Br869   1.932       .  S
C865        C866   1.416       .  A
C866       Br867   1.934       .  S
C871        C872   1.413       .  A
C871        C876   1.405       .  A
C871       Br878   1.932       .  S
C872        C873   1.413       .  A
C873        C874   1.405       .  A
C873       Br880   1.932       .  S
C874        C875   1.406       .  A
C874       Br879   1.930       .  S
C875        C876   1.406       .  A
C876       Br877   1.932       .  S
