geometry optimzed in LAMMPS
_audit_creation_date              2020-11-30 
_audit_creation_method            'lammps2cif' 
_symmetry_space_group_name_H-M    'P1' 
_symmetry_Int_Tables_number       1 
_symmetry_cell_setting            triclinic 
loop_ 
_symmetry_equiv_pos_as_xyz 
  x,y,z 
_cell_length_a                    30.47614222 
_cell_length_b                    34.868849182175964 
_cell_length_c                    27.746248601550157 
_cell_angle_alpha                 89.22170023450973 
_cell_angle_beta                  97.0246632304157 
_cell_angle_gamma                 90.88492451557586 
loop_ 
_atom_site_label 
_atom_site_type_symbol 
_atom_site_fract_x 
_atom_site_fract_y 
_atom_site_fract_z 
_atom_site_charge 
C1          C  0.06604660  0.81927797  0.18717189    -0.02600
C2          C  0.09699367  0.69025136  0.05047493    -0.02600
C3          C  0.24507371  0.83087324  0.29835491    -0.02600
C4          C  0.24993415  0.69450067  0.43395064    -0.02600
C5          C  0.05537686  0.18210664  0.19439141    -0.02600
C6          C  0.08939705  0.32263818  0.07241365    -0.02600
C7          C  0.23634769  0.19547116  0.31516296    -0.02600
C8          C  0.24058236  0.33099430  0.45043457    -0.02600
O9          O  0.23352008  0.54803310  0.27848547    -0.74600
O10         O  0.18399609  0.46911861  0.19211875    -0.74600
O11         O  0.18868237  0.54670640  0.18795259    -0.74600
O12         O  0.22839773  0.47063787  0.28434512    -0.74700
O13         O  0.16412702  0.47493648  0.31390385    -0.74600
O14         O  0.12440304  0.55026371  0.21749907    -0.74600
O15         O  0.11987544  0.47262535  0.22282130    -0.74600
O16         O  0.16904883  0.55183832  0.30805076    -0.74600
Ni17       Ni  0.21089660  0.50842033  0.23448433     1.25400
Ni18       Ni  0.14210077  0.51251715  0.26655648     1.25400
C19         C  0.20944071  0.56270975  0.30791036     0.87600
C20         C  0.14387765  0.45794521  0.19325244     0.87600
C21         C  0.15016942  0.56124942  0.18672442     0.87600
C22         C  0.20299669  0.46110259  0.31632175     0.87800
O23         O  0.00369404  0.96987603  0.43297758    -0.74600
O24         O  0.04119083  0.03867046  0.03519681    -0.74600
O25         O  0.03531505  0.96121975  0.02853467    -0.74600
O26         O  0.00651138  0.04789859  0.44026693    -0.74700
O27         O  0.27033988  0.04725599  0.46476790    -0.74600
O28         O  0.30390043  0.96361324  0.05169114    -0.74600
O29         O  0.30821267  0.04096167  0.05777808    -0.74600
O30         O  0.26809124  0.97039179  0.45714396    -0.74600
Ni31       Ni  0.02499853  0.00541970  0.48344241     1.25400
Ni32       Ni  0.28625945  0.00514884  0.00859256     1.25400
C33         C  0.29466766  0.95991439  0.42758941     0.87600
C34         C  0.01389143  0.05128671  0.06251319     0.87600
C35         C  0.00652872  0.94796890  0.05483170     0.87600
C36         C  0.29851402  0.06231543  0.43942054     0.87800
C37         C  0.20787400  0.39875827  0.43079450    -0.20400
C38         C  0.23863447  0.37044763  0.42172303    -0.07000
C39         C  0.26709481  0.38043273  0.38590634     0.13900
C40         C  0.25490205  0.41024457  0.35223624    -0.20500
C41         C  0.21816056  0.43330939  0.35620260    -0.07000
C42         C  0.19733941  0.42971020  0.39898513     0.13900
C43         C  0.16451615  0.45851597  0.41250221    -0.23800
H44         H  0.19072999  0.39670255  0.46255275     0.15100
H45         H  0.27403318  0.41523006  0.32225378     0.15200
C46         C  0.30998539  0.36024456  0.38188360    -0.23800
H47         H  0.15566921  0.45331655  0.44974071     0.05400
H48         H  0.13334427  0.45665896  0.38740342     0.08600
H49         H  0.17899156  0.48791190  0.41154911     0.08600
H50         H  0.30490407  0.32911985  0.37653277     0.08600
H51         H  0.33341895  0.36537545  0.41506697     0.08600
H52         H  0.32632391  0.37137477  0.35078280     0.05400
C53         C  0.28826447  0.16082558  0.38019877    -0.20400
C54         C  0.24817903  0.15806832  0.34785683    -0.07000
C55         C  0.22776103  0.12031738  0.34379048     0.13900
C56         C  0.24544749  0.09034440  0.37456042    -0.20500
C57         C  0.28409270  0.09476876  0.40672428    -0.07000
C58         C  0.30609753  0.13034964  0.40922217     0.13900
C59         C  0.01938985  0.13387459  0.43619084    -0.23800
H60         H  0.30619157  0.18771042  0.38309587     0.15100
H61         H  0.22919776  0.06239707  0.37301833     0.15200
C62         C  0.18920593  0.10817624  0.30728180    -0.23800
H63         H  0.03247243  0.16366420  0.43377698     0.05400
H64         H  0.37417290  0.11780033  0.43416509     0.08600
H65         H  0.01544828  0.12757825  0.47477831     0.08600
H66         H  0.19169428  0.11900376  0.27021340     0.08600
H67         H  0.15781829  0.11594036  0.32022221     0.08600
H68         H  0.18727607  0.07650260  0.30335293     0.05400
C69         C  0.23051224  0.22610136  0.39909041    -0.20400
C70         C  0.23160782  0.23134042  0.34854406    -0.07000
C71         C  0.22334899  0.26948067  0.33079587     0.13900
C72         C  0.22497470  0.30023178  0.36364748    -0.20500
C73         C  0.23319249  0.29539202  0.41484314    -0.07000
C74         C  0.23196274  0.25650662  0.43202556     0.13900
C75         C  0.23144881  0.24544282  0.48491475    -0.23800
H76         H  0.22739645  0.19759181  0.41395335     0.15100
H77         H  0.21841302  0.32830237  0.34816230     0.15200
C78         C  0.21281587  0.27917732  0.27745837    -0.23800
H79         H  0.19917362  0.25276115  0.49631587     0.05400
H80         H  0.25861909  0.25933037  0.50874788     0.08600
H81         H  0.23519813  0.21408897  0.49134864     0.08600
H82         H  0.18143979  0.26513874  0.26223856     0.08600
H83         H  0.24020393  0.27099455  0.25740767     0.08600
H84         H  0.20823352  0.31043199  0.27092200     0.05400
C85         C  0.10369706  0.39419047  0.08601574    -0.20400
C86         C  0.09837822  0.35775992  0.10864534    -0.07000
C87         C  0.10726441  0.35686299  0.16161060     0.13900
C88         C  0.11951901  0.39095642  0.18659982    -0.20500
C89         C  0.12608678  0.42543936  0.16292686    -0.07000
C90         C  0.11750510  0.42747498  0.11214355     0.13900
C91         C  0.12238921  0.46494927  0.08556952    -0.23800
H92         H  0.09785916  0.39643147  0.04677226     0.15100
H93         H  0.12604716  0.39058903  0.22596673     0.15200
C94         C  0.10765066  0.32225080  0.19567973    -0.23800
H95         H  0.11353387  0.46194994  0.04574935     0.05400
H96         H  0.15712687  0.47546554  0.09232044     0.08600
H97         H  0.10031977  0.48657544  0.09858431     0.08600
H98         H  0.07389601  0.31625613  0.20502081     0.08600
H99         H  0.12771924  0.32774923  0.23117365     0.08600
H100        H  0.12313150  0.29664401  0.18276000     0.05400
C101        C  0.34714262  0.35595203  0.04188137    -0.20400
C102        C  0.04308976  0.32614277  0.03761123    -0.07000
C103        C  0.02569764  0.29778159  0.50219766     0.13900
C104        C  0.31837758  0.30154052  0.47335816    -0.20500
C105        C  0.28824530  0.33033212  0.48143787    -0.07000
C106        C  0.30568537  0.36068338  0.01301685     0.13900
C107        C  0.28165820  0.39753459  0.01941931    -0.23800
H108        H  0.02201554  0.37752402  0.07054011     0.15100
H109        H  0.31016993  0.28176887  0.44418632     0.15200
C110        C  0.04883255  0.26097188  0.49306691    -0.23800
H111        H  0.29847535  0.41497386  0.04960464     0.05400
H112        H  0.24759091  0.39222018  0.02779537     0.08600
H113        H  0.28134718  0.41558861  0.98623399     0.08600
H114        H  0.08094745  0.26665901  0.48004261     0.08600
H115        H  0.03034031  0.24347913  0.46392750     0.08600
H116        H  0.05072641  0.24194295  0.52517214     0.05400
C117        C  0.12196487  0.33016910  0.49198529    -0.20400
C118        C  0.13029345  0.32438679  0.04166606    -0.07000
C119        C  0.17599187  0.32437577  0.06206015     0.13900
C120        C  0.20998553  0.32546082  0.03155676    -0.20500
C121        C  0.20099745  0.32748230  0.48243210    -0.07000
C122        C  0.15553869  0.32841617  0.46174517     0.13900
C123        C  0.14015231  0.32635099  0.40771226    -0.23800
H124        H  0.08936529  0.33609929  0.47425188     0.15100
H125        H  0.24354449  0.32344318  0.04875224     0.15200
C126        C  0.19107459  0.32536844  0.11596602    -0.23800
H127        H  0.14635486  0.29736530  0.39444042     0.05400
H128        H  0.15578358  0.34852222  0.38649220     0.08600
H129        H  0.10394061  0.33040268  0.39918360     0.08600
H130        H  0.22704998  0.32008049  0.12449426     0.08600
H131        H  0.17429977  0.30309482  0.13564091     0.08600
H132        H  0.18561614  0.35416665  0.13017879     0.05400
C133        C  0.00161402  0.11576125  0.08941577    -0.20400
C134        C  0.02719960  0.08315350  0.09582899    -0.07000
C135        C  0.06340968  0.08230614  0.13251126     0.13900
C136        C  0.07262696  0.11443774  0.16268955    -0.20500
C137        C  0.04595485  0.14772912  0.15795550    -0.07000
C138        C  0.00970424  0.14772090  0.11917701     0.13900
C139        C  0.30976713  0.18022850  0.11208937    -0.23800
H140        H  0.30761987  0.11719236  0.06253737     0.15100
H141        H  0.09920267  0.11198687  0.19203843     0.15200
C142        C  0.09079662  0.04679615  0.14155554    -0.23800
H143        H  0.32525289  0.20642110  0.09861816     0.05400
H144        H  0.95949502  0.18353058  0.14117712     0.08600
H145        H  0.28257323  0.17291895  0.08311210     0.08600
H146        H  0.10678696  0.04014630  0.10886724     0.08600
H147        H  0.06924634  0.02229529  0.15004588     0.08600
H148        H  0.11718161  0.05034148  0.17258750     0.05400
C149        C  0.14115792  0.17847346  0.20721722    -0.20400
C150        C  0.10187546  0.17859121  0.22913836    -0.07000
C151        C  0.10939763  0.17878199  0.28163523     0.13900
C152        C  0.15202406  0.18765207  0.30601436    -0.20500
C153        C  0.19022074  0.19190984  0.28209103    -0.07000
C154        C  0.18239694  0.19070649  0.23011982     0.13900
C155        C  0.21270184  0.20509736  0.19447219    -0.23800
H156        H  0.14065153  0.16968086  0.17041312     0.15100
H157        H  0.15631429  0.18747213  0.34538585     0.15200
C158        C  0.07787508  0.16195387  0.31475254    -0.28000
H159        H  0.19423194  0.22486260  0.16789722     0.05400
H160        H  0.22401881  0.18067407  0.17417675     0.08600
H161        H  0.24071121  0.22243462  0.21026073     0.08600
H162        H  0.05323924  0.14225400  0.29590181     0.08600
H163        H  0.06238782  0.18491253  0.33385660     0.08600
H164        H  0.09584810  0.14369695  0.34352264     0.05400
C165        C  0.28125071  0.16396871  0.25757806    -0.20400
C166        C  0.27742945  0.19696092  0.28552480    -0.07000
C167        C  0.98235015  0.22216649  0.28758673     0.13900
C168        C  0.01671781  0.21605914  0.25854916    -0.20500
C169        C  0.01742700  0.18430846  0.22745631    -0.07000
C170        C  0.31784477  0.15570363  0.23439728     0.13900
C171        C  0.32271023  0.11346322  0.22421379    -0.23800
H172        H  0.25547942  0.14241735  0.25587547     0.15100
H173        H  0.04371384  0.23677082  0.25952775     0.15200
C174        C  0.98980326  0.25545355  0.32218361    -0.23800
H175        H  0.30374069  0.09517214  0.24774295     0.05400
H176        H  0.35727980  0.10424230  0.23361149     0.08600
H177        H  0.30936787  0.10651483  0.18643211     0.08600
H178        H  0.02459981  0.26604227  0.32549217     0.08600
H179        H  0.98393904  0.24737117  0.35951500     0.08600
H180        H  0.96981372  0.28026861  0.30843925     0.05400
C181        C  0.04498566  0.28424550  0.12645459    -0.20400
C182        C  0.08244201  0.28453567  0.10106306    -0.07000
C183        C  0.10470541  0.24886832  0.10000439     0.13900
C184        C  0.08880563  0.21711652  0.12482953    -0.20500
C185        C  0.05867851  0.21916117  0.15987026    -0.07000
C186        C  0.03269308  0.25357434  0.15552845     0.13900
C187        C  0.98806222  0.25987416  0.17240518    -0.23800
H188        H  0.02524623  0.30996754  0.12511905     0.15100
H189        H  0.09891684  0.18936595  0.11426445     0.15200
C190        C  0.14238712  0.24069622  0.07081228    -0.23800
H191        H  0.32925074  0.28131057  0.20918353     0.05400
H192        H  0.97133051  0.23384867  0.18243609     0.08600
H193        H  0.30051492  0.27615955  0.14919703     0.08600
H194        H  0.17385716  0.25291351  0.08805075     0.08600
H195        H  0.13581650  0.25067529  0.03302017     0.08600
H196        H  0.14868716  0.20951120  0.06876444     0.05400
C197        C  0.27106483  0.64895038  0.36894198    -0.20400
C198        C  0.24622148  0.65438399  0.40822463    -0.07000
C199        C  0.22037202  0.62184411  0.42116360     0.13900
C200        C  0.20961942  0.59285993  0.38732838    -0.20500
C201        C  0.22769307  0.59195080  0.34355366    -0.07000
C202        C  0.26153093  0.61871996  0.33588551     0.13900
C203        C  0.28565729  0.61734520  0.29170837    -0.23800
H204        H  0.29514049  0.67040385  0.36120995     0.15100
H205        H  0.18729756  0.56989054  0.39593391     0.15200
C206        C  0.20587412  0.61315478  0.47030810    -0.23800
H207        H  0.30992197  0.64137878  0.29087277     0.05400
H208        H  0.26170048  0.61940883  0.25827330     0.08600
H209        H  0.30411247  0.59014491  0.29182707     0.08600
H210        H  0.16945898  0.60964749  0.46708047     0.08600
H211        H  0.21622453  0.63430945  0.49840886     0.08600
H212        H  0.22053458  0.58553305  0.48403706     0.05400
C213        C  0.30843458  0.92140685  0.35501934    -0.20400
C214        C  0.27884141  0.93352164  0.38672646    -0.07000
C215        C  0.23402610  0.92204517  0.37575837     0.13900
C216        C  0.22307876  0.89304449  0.34159736    -0.20500
C217        C  0.25531596  0.87304741  0.31930467    -0.07000
C218        C  0.29528734  0.89474542  0.31796038     0.13900
C219        C  0.31975967  0.89744823  0.27412616    -0.23800
H220        H  0.01100217  0.93096953  0.35804639     0.15100
H221        H  0.18864159  0.88689238  0.33296133     0.15200
C222        C  0.19711075  0.93925894  0.39973558    -0.23800
H223        H  0.99663011  0.92358097  0.26492203     0.05400
H224        H  0.30195968  0.88319891  0.24191668     0.08600
H225        H  0.02398923  0.88042894  0.28697265     0.08600
H226        H  0.19717348  0.97088862  0.39447255     0.08600
H227        H  0.20094129  0.93175801  0.43900334     0.08600
H228        H  0.16405820  0.92827648  0.38417005     0.05400
C229        C  0.22930739  0.76161508  0.31900615    -0.20400
C230        C  0.24430471  0.79769851  0.33747986    -0.07000
C231        C  0.25664579  0.79933919  0.38880549     0.13900
C232        C  0.25228023  0.76614605  0.41746005    -0.20500
C233        C  0.24170549  0.72946493  0.39788336    -0.07000
C234        C  0.22489608  0.72872141  0.34748809     0.13900
C235        C  0.19819347  0.69693039  0.32041690    -0.23800
H236        H  0.21782074  0.75930426  0.28112260     0.15100
H237        H  0.26129678  0.76829830  0.45603034     0.15200
C238        C  0.27626271  0.83404252  0.41562935    -0.23800
H239        H  0.16583751  0.70857163  0.30458238     0.05400
H240        H  0.18974421  0.67179518  0.34160404     0.08600
H241        H  0.21575277  0.68698089  0.29018310     0.08600
H242        H  0.25028786  0.85507466  0.41925243     0.08600
H243        H  0.30411208  0.84644613  0.39835395     0.08600
H244        H  0.29041189  0.82666419  0.45331993     0.05400
C245        C  0.14328739  0.62985610  0.07770960    -0.20400
C246        C  0.10718334  0.65369511  0.08438511    -0.07000
C247        C  0.08246318  0.64286623  0.12358832     0.13900
C248        C  0.09713281  0.61254032  0.15533839    -0.20500
C249        C  0.13525954  0.59156529  0.14994426    -0.07000
C250        C  0.15801376  0.60009665  0.10967728     0.13900
C251        C  0.19815465  0.57814820  0.09934589    -0.23800
H252        H  0.16103805  0.63384845  0.04697999     0.15100
H253        H  0.07869029  0.60578090  0.18545801     0.15200
C254        C  0.04112930  0.66280613  0.13483672    -0.23800
H255        H  0.21074429  0.58793065  0.06547613     0.05400
H256        H  0.18975645  0.54716295  0.09538289     0.08600
H257        H  0.22569304  0.58261819  0.12887675     0.08600
H258        H  0.04699269  0.67511071  0.17179835     0.08600
H259        H  0.03027699  0.68622024  0.10914089     0.08600
H260        H  0.01337010  0.64180590  0.13444171     0.05400
C261        C  0.03894796  0.72083248  0.48653739    -0.20400
C262        C  0.05020085  0.68623771  0.01900284    -0.07000
C263        C  0.01892096  0.65479779  0.01809095     0.13900
C264        C  0.30706645  0.66519442  0.99662062    -0.20500
C265        C  0.29823842  0.69440065  0.46115758    -0.07000
C266        C  0.33454496  0.71837041  0.45115043     0.13900
C267        C  0.34014013  0.73830908  0.40335590    -0.23800
H268        H  0.06414734  0.74008700  0.47758518     0.15100
H269        H  0.28249575  0.64390589  0.00193796     0.15200
C270        C  0.02872077  0.61338102  0.03242665    -0.23800
H271        H  0.03906940  0.72942635  0.39295231     0.05400
H272        H  0.34226314  0.76980975  0.40847889     0.08600
H273        H  0.31531129  0.73113587  0.37263752     0.08600
H274        H  0.01316276  0.60511196  0.06516993     0.08600
H275        H  0.06381657  0.60580186  0.03658974     0.08600
H276        H  0.34217027  0.59866763  0.00559295     0.05400
C277        C  0.17651043  0.70926500  0.03879785    -0.20400
C278        C  0.13489876  0.69520810  0.01716696    -0.07000
C279        C  0.13322567  0.68656221  0.47018743     0.13900
C280        C  0.16929432  0.69241637  0.44448085    -0.20500
C281        C  0.21237792  0.69999300  0.46716271    -0.07000
C282        C  0.21442783  0.71157175  0.01431256     0.13900
C283        C  0.25468465  0.72901771  0.04382797    -0.23800
H284        H  0.18009526  0.71768594  0.07650829     0.15100
H285        H  0.16472733  0.68502110  0.40685184     0.15200
C286        C  0.09850666  0.65867237  0.44688534    -0.23800
H287        H  0.24517101  0.75595361  0.06058622     0.05400
H288        H  0.28198772  0.73755737  0.02354141     0.08600
H289        H  0.26723765  0.70882904  0.07345568     0.08600
H290        H  0.06739673  0.67254325  0.43265608     0.08600
H291        H  0.09313796  0.63520296  0.47262335     0.08600
H292        H  0.10930089  0.64435677  0.41486166     0.05400
C293        C  0.04848118  0.92416966  0.13070730    -0.20400
C294        C  0.01813207  0.91667164  0.09024768    -0.07000
C295        C  0.99728846  0.88058865  0.08612236     0.13900
C296        C  0.01060944  0.85165058  0.12024950    -0.20500
C297        C  0.04572007  0.85656597  0.15874671    -0.07000
C298        C  0.06084572  0.89592675  0.16637358     0.13900
C299        C  0.08777841  0.91125689  0.21156279    -0.23800
H300        H  0.06205551  0.95302136  0.13495506     0.15100
H301        H  0.32882891  0.82675491  0.11485220     0.15200
C302        C  0.29602385  0.87495619  0.04635146    -0.23800
H303        H  0.08327290  0.94261948  0.21515166     0.05400
H304        H  0.12358835  0.90751995  0.21060952     0.08600
H305        H  0.07661403  0.89866243  0.24443982     0.08600
H306        H  0.30992133  0.87890373  0.01141898     0.08600
H307        H  0.26796752  0.89473496  0.04724103     0.08600
H308        H  0.28281451  0.84515175  0.04791526     0.05400
C309        C  0.11759528  0.83486551  0.26569376    -0.20400
C310        C  0.11226714  0.83108542  0.21528737    -0.07000
C311        C  0.15121215  0.84113676  0.19291182     0.13900
C312        C  0.19186868  0.84688794  0.22247906    -0.20500
C313        C  0.19765317  0.83321207  0.27061858    -0.07000
C314        C  0.15803936  0.82874835  0.29357893     0.13900
C315        C  0.15540216  0.81929975  0.34709395    -0.23800
H316        H  0.09040900  0.84229839  0.28444519     0.15100
H317        H  0.22048663  0.85720384  0.20632844     0.15200
C318        C  0.15196227  0.84732925  0.13914131    -0.23800
H319        H  0.15849228  0.78800892  0.35369865     0.05400
H320        H  0.12311515  0.82736670  0.35835220     0.08600
H321        H  0.18004612  0.83446867  0.37253316     0.08600
H322        H  0.18205230  0.86352994  0.13144897     0.08600
H323        H  0.12364648  0.86433237  0.12261402     0.08600
H324        H  0.15354228  0.81933578  0.12125381     0.05400
C325        C  0.31939135  0.79556458  0.19799892    -0.20400
C326        C  0.02864962  0.80298640  0.21958944    -0.07000
C327        C  0.02977023  0.80055365  0.27159142     0.13900
C328        C  0.99207021  0.81009336  0.29290280    -0.20500
C329        C  0.28247472  0.81644711  0.26773769    -0.07000
C330        C  0.27993862  0.79950955  0.22003510     0.13900
C331        C  0.23983184  0.78108797  0.19137063    -0.23800
H332        H  0.31722853  0.78273967  0.16256819     0.15100
H333        H  0.99558602  0.81339825  0.33185003     0.15200
C334        C  0.05939574  0.77438088  0.30479630    -0.23800
H335        H  0.24747973  0.75092428  0.18348228     0.05400
H336        H  0.23212764  0.79651117  0.15615122     0.08600
H337        H  0.20978205  0.77929212  0.20932608     0.08600
H338        H  0.06250487  0.78446059  0.34285952     0.08600
H339        H  0.09321041  0.77219251  0.29649656     0.08600
H340        H  0.04438225  0.74513741  0.30419735     0.05400
C341        C  0.07500983  0.79323600  0.09990467    -0.20400
C342        C  0.07720821  0.78651465  0.15084714    -0.07000
C343        C  0.09786639  0.75121478  0.16679575     0.13900
C344        C  0.11041564  0.72487559  0.13342518    -0.20500
C345        C  0.09760215  0.72781889  0.08316708    -0.07000
C346        C  0.08835116  0.76634068  0.06712075     0.13900
C347        C  0.10262468  0.78436649  0.02147051    -0.23800
H348        H  0.06969404  0.82171291  0.08522917     0.15100
H349        H  0.12991456  0.70082312  0.14775987     0.15200
C350        C  0.10727080  0.73911355  0.21867657    -0.23800
H351        H  0.12484952  0.80933667  0.03134818     0.05400
H352        H  0.07336744  0.79522227  0.99765525     0.08600
H353        H  0.12224889  0.76560035  0.00105807     0.08600
H354        H  0.07525077  0.73518453  0.23276600     0.08600
H355        H  0.13059812  0.75963063  0.23843013     0.08600
H356        H  0.12340409  0.71074906  0.22365600     0.05400
C357        C  0.06422592  0.82333037  0.69009115    -0.02600
C358        C  0.09782432  0.69589933  0.55235622    -0.02600
C359        C  0.24494346  0.83112031  0.79759321    -0.02600
C360        C  0.24966278  0.69411127  0.93244142    -0.02600
C361        C  0.05493847  0.18262060  0.69642990    -0.02600
C362        C  0.08794829  0.32266210  0.57297464    -0.02600
C363        C  0.23682063  0.19497446  0.81574315    -0.02600
C364        C  0.24111144  0.33231037  0.94783182    -0.02600
O365        O  0.23311107  0.54811944  0.77541155    -0.74600
O366        O  0.17954047  0.47127299  0.68801528    -0.74600
O367        O  0.18682973  0.54884976  0.68572148    -0.74600
O368        O  0.22545230  0.47066734  0.77943293    -0.74700
O369        O  0.16189206  0.47592593  0.81019154    -0.74600
O370        O  0.12330338  0.55363577  0.71650202    -0.74600
O371        O  0.11613984  0.47584546  0.71991734    -0.74600
O372        O  0.16933100  0.55281782  0.80625128    -0.74600
Ni373      Ni  0.20842036  0.50948396  0.73081556     1.25400
Ni374      Ni  0.14041801  0.51470176  0.76423298     1.25400
C375        C  0.20992353  0.56292848  0.80564044     0.87600
C376        C  0.13927296  0.46075141  0.68978870     0.87600
C377        C  0.14907441  0.56453424  0.68569075     0.87600
C378        C  0.20028972  0.46126522  0.81167973     0.87800
O379        O  0.99938212  0.96872401  0.93341476    -0.74600
O380        O  0.04202230  0.04102275  0.53467136    -0.74600
O381        O  0.03771075  0.96339576  0.52912281    -0.74600
O382        O  0.00391374  0.04656660  0.94160129    -0.74700
O383        O  0.27217855  0.04662327  0.96426944    -0.74600
O384        O  0.30304236  0.96392909  0.55130265    -0.74600
O385        O  0.30710333  0.04137464  0.55810523    -0.74600
O386        O  0.26974928  0.96987179  0.95719874    -0.74600
Ni387      Ni  0.02242632  0.00364893  0.98380093     1.25400
Ni388      Ni  0.28487858  0.00562632  0.50873122     1.25400
C389        C  0.29625042  0.95925708  0.92767335     0.87600
C390        C  0.01388928  0.05362048  0.56099621     0.87600
C391        C  0.00845522  0.95018899  0.55489292     0.87600
C392        C  0.30051097  0.06156818  0.93903799     0.87800
C393        C  0.20696073  0.39936602  0.92692572    -0.20400
C394        C  0.23817135  0.37138149  0.91814290    -0.07000
C395        C  0.26576999  0.38118094  0.88144304     0.13900
C396        C  0.25250744  0.41035462  0.84715482    -0.20500
C397        C  0.21547338  0.43309970  0.85120218    -0.07000
C398        C  0.19499823  0.42947336  0.89424182     0.13900
C399        C  0.16078403  0.45724914  0.90707509    -0.23800
H400        H  0.19036341  0.39756120  0.95908219     0.15100
H401        H  0.27121550  0.41525119  0.81680501     0.15200
C402        C  0.30894369  0.36151639  0.87730628    -0.23800
H403        H  0.15185380  0.45201121  0.94426676     0.05400
H404        H  0.12986172  0.45415161  0.88175905     0.08600
H405        H  0.17393527  0.48708554  0.90578354     0.08600
H406        H  0.30443957  0.33025237  0.87298291     0.08600
H407        H  0.33261456  0.36746574  0.91006352     0.08600
H408        H  0.32460776  0.37233470  0.84557704     0.05400
C409        C  0.28940621  0.16035639  0.88033256    -0.20400
C410        C  0.24884880  0.15770242  0.84870760    -0.07000
C411        C  0.22858144  0.11989742  0.84467985     0.13900
C412        C  0.24667431  0.08985764  0.87507928    -0.20500
C413        C  0.28604638  0.09401778  0.90617605    -0.07000
C414        C  0.30829064  0.12950459  0.90795379     0.13900
C415        C  0.01460032  0.13425376  0.94389804    -0.23800
H416        H  0.30729713  0.18726490  0.88308558     0.15100
H417        H  0.23026149  0.06198564  0.87388491     0.15200
C418        C  0.18991774  0.10774576  0.80832328    -0.23800
H419        H  0.02705438  0.16432328  0.94271508     0.05400
H420        H  0.37691680  0.11624593  0.92787301     0.08600
H421        H  0.00829217  0.12762231  0.98168945     0.08600
H422        H  0.19255108  0.11831234  0.77115181     0.08600
H423        H  0.15861138  0.11582390  0.82113233     0.08600
H424        H  0.18767855  0.07605452  0.80473224     0.05400
C425        C  0.23182243  0.22657977  0.89917045    -0.20400
C426        C  0.23211709  0.23114694  0.84845567    -0.07000
C427        C  0.22365596  0.26903685  0.82984091     0.13900
C428        C  0.22504440  0.30020412  0.86197195    -0.20500
C429        C  0.23380648  0.29614332  0.91320364    -0.07000
C430        C  0.23335377  0.25748600  0.93138356     0.13900
C431        C  0.23372194  0.24717629  0.98462584    -0.23800
H432        H  0.22945088  0.19823723  0.91475390     0.15100
H433        H  0.21796401  0.32798294  0.84586400     0.15200
C434        C  0.21368831  0.27811742  0.77624552    -0.23800
H435        H  0.20156704  0.25437859  0.99640890     0.05400
H436        H  0.26093527  0.26160975  0.00777521     0.08600
H437        H  0.23799157  0.21595110  0.99174435     0.08600
H438        H  0.18220557  0.26429281  0.76097651     0.08600
H439        H  0.24115962  0.26932301  0.75667430     0.08600
H440        H  0.20965697  0.30934466  0.76901656     0.05400
C441        C  0.10265192  0.39446906  0.58401737    -0.20400
C442        C  0.09685453  0.35859908  0.60786984    -0.07000
C443        C  0.10355001  0.35922808  0.66078439     0.13900
C444        C  0.11225403  0.39436005  0.68466592    -0.20500
C445        C  0.12068091  0.42809370  0.66006728    -0.07000
C446        C  0.11553576  0.42843563  0.60911323     0.13900
C447        C  0.12307727  0.46479148  0.58116456    -0.23800
H448        H  0.09823432  0.39567574  0.54469017     0.15100
H449        H  0.11659864  0.39493062  0.72410388     0.15200
C450        C  0.10749567  0.32541106  0.69618062    -0.23800
H451        H  0.11681313  0.46043273  0.54131629     0.05400
H452        H  0.15780770  0.47488446  0.59002807     0.08600
H453        H  0.10049912  0.48734873  0.59091922     0.08600
H454        H  0.07555226  0.32025670  0.71071447     0.08600
H455        H  0.13231718  0.33167325  0.72800197     0.08600
H456        H  0.12015162  0.29895473  0.68236412     0.05400
C457        C  0.34688602  0.35424645  0.54415506    -0.20400
C458        C  0.04171144  0.32589029  0.53812994    -0.07000
C459        C  0.02694644  0.29800119  0.00175167     0.13900
C460        C  0.31934122  0.30344443  0.97057775    -0.20500
C461        C  0.28909248  0.33222564  0.97832903    -0.07000
C462        C  0.30484874  0.35857256  0.51647622     0.13900
C463        C  0.28039363  0.39493737  0.52447039    -0.23800
H464        H  0.02052781  0.37730373  0.57091866     0.15100
H465        H  0.31141915  0.28375935  0.94124507     0.15200
C466        C  0.05040387  0.26139187  0.99226096    -0.23800
H467        H  0.29700925  0.41170428  0.55540653     0.05400
H468        H  0.24640066  0.38916160  0.53272430     0.08600
H469        H  0.27993571  0.41392462  0.49212087     0.08600
H470        H  0.08272003  0.26724550  0.97981457     0.08600
H471        H  0.03223276  0.24414955  0.96266507     0.08600
H472        H  0.05219709  0.24205776  0.02408589     0.05400
C473        C  0.12294088  0.33078021  0.99093203    -0.20400
C474        C  0.12891803  0.32368597  0.54267874    -0.07000
C475        C  0.17439133  0.32274263  0.56361472     0.13900
C476        C  0.20863065  0.32325718  0.53349881    -0.20500
C477        C  0.20188167  0.32886871  0.98043801    -0.07000
C478        C  0.15624291  0.32906786  0.96027661     0.13900
C479        C  0.14036484  0.32618322  0.90640820    -0.23800
H480        H  0.09019624  0.33636554  0.97339993     0.15100
H481        H  0.24202555  0.32035811  0.55093370     0.15200
C482        C  0.18890879  0.32289385  0.61770651    -0.23800
H483        H  0.14684970  0.29709208  0.89367576     0.05400
H484        H  0.15541143  0.34820146  0.88444701     0.08600
H485        H  0.10405529  0.32978005  0.89822866     0.08600
H486        H  0.22497983  0.31820992  0.62650035     0.08600
H487        H  0.17252847  0.29984579  0.63652200     0.08600
H488        H  0.18262369  0.35117394  0.63284309     0.05400
C489        C  0.00010778  0.11732382  0.59067616    -0.20400
C490        C  0.02659912  0.08513936  0.59524385    -0.07000
C491        C  0.06359060  0.08436487  0.63101659     0.13900
C492        C  0.07230994  0.11571471  0.66252764    -0.20500
C493        C  0.04511008  0.14862933  0.65939498    -0.07000
C494        C  0.00836912  0.14891457  0.62120157     0.13900
C495        C  0.30871507  0.18006108  0.61576713    -0.23800
H496        H  0.30516760  0.11705741  0.56598968     0.15100
H497        H  0.09930111  0.11300832  0.69134862     0.15200
C498        C  0.09275594  0.04977027  0.63751062    -0.23800
H499        H  0.32403518  0.20635305  0.60236450     0.05400
H500        H  0.95918525  0.18504587  0.64502128     0.08600
H501        H  0.28109728  0.17298645  0.58717561     0.08600
H502        H  0.10847406  0.04511875  0.60408452     0.08600
H503        H  0.07262194  0.02412538  0.64511113     0.08600
H504        H  0.11950462  0.05320668  0.66819453     0.05400
C505        C  0.14078579  0.17876172  0.70812232    -0.20400
C506        C  0.10175984  0.17880356  0.73056114    -0.07000
C507        C  0.10980822  0.17856571  0.78300770     0.13900
C508        C  0.15259291  0.18730494  0.80701427    -0.20500
C509        C  0.19064350  0.19127302  0.78279035    -0.07000
C510        C  0.18251469  0.18998589  0.73080791     0.13900
C511        C  0.21314581  0.20301648  0.69480100    -0.23800
H512        H  0.13978110  0.17042744  0.67109165     0.15100
H513        H  0.15714283  0.18711751  0.84639018     0.15200
C514        C  0.07868748  0.16140623  0.81634094    -0.28000
H515        H  0.19520473  0.22259259  0.66755753     0.05400
H516        H  0.22377346  0.17786731  0.67531182     0.08600
H517        H  0.24149743  0.22019084  0.70998719     0.08600
H518        H  0.05379856  0.14192486  0.79748102     0.08600
H519        H  0.06357060  0.18416593  0.83614662     0.08600
H520        H  0.09690158  0.14282592  0.84456233     0.05400
C521        C  0.28219085  0.16332210  0.75883784    -0.20400
C522        C  0.27785782  0.19655468  0.78625122    -0.07000
C523        C  0.98230402  0.22111320  0.79106805     0.13900
C524        C  0.01668090  0.21543462  0.76189855    -0.20500
C525        C  0.01724965  0.18425584  0.72995905    -0.07000
C526        C  0.31929284  0.15512832  0.73663369     0.13900
C527        C  0.32611431  0.11278048  0.72902486    -0.23800
H528        H  0.25682756  0.14140096  0.75731923     0.15100
H529        H  0.04374411  0.23611510  0.76337343     0.15200
C530        C  0.98992215  0.25397542  0.82631843    -0.23800
H531        H  0.30925049  0.09495733  0.75496918     0.05400
H532        H  0.36135682  0.10515753  0.73720536     0.08600
H533        H  0.31192443  0.10400979  0.69211511     0.08600
H534        H  0.02508554  0.26363127  0.83091035     0.08600
H535        H  0.98286522  0.24591851  0.86322199     0.08600
H536        H  0.97105892  0.27935740  0.81227613     0.05400
C537        C  0.04456876  0.28524007  0.62912422    -0.20400
C538        C  0.08110804  0.28492176  0.60232786    -0.07000
C539        C  0.10293296  0.24903444  0.60095775     0.13900
C540        C  0.08730519  0.21761894  0.62643630    -0.20500
C541        C  0.05808693  0.21997858  0.66234441    -0.07000
C542        C  0.03282577  0.25483324  0.65905946     0.13900
C543        C  0.98931713  0.26177386  0.67815083    -0.23800
H544        H  0.02521125  0.31117234  0.62803123     0.15100
H545        H  0.09695222  0.18978006  0.61569514     0.15200
C546        C  0.13966530  0.24003101  0.57064068    -0.23800
H547        H  0.33066176  0.28144206  0.71158881     0.05400
H548        H  0.97165421  0.23570000  0.68643888     0.08600
H549        H  0.30173409  0.27703643  0.65164946     0.08600
H550        H  0.17207168  0.25013923  0.58822963     0.08600
H551        H  0.13372119  0.25136904  0.53348970     0.08600
H552        H  0.14362560  0.20869067  0.56644767     0.05400
C553        C  0.27160175  0.64901615  0.86714168    -0.20400
C554        C  0.24682329  0.65394765  0.90666370    -0.07000
C555        C  0.22189023  0.62080307  0.91970804     0.13900
C556        C  0.21200488  0.59160681  0.88599009    -0.20500
C557        C  0.22919933  0.59149285  0.84173602    -0.07000
C558        C  0.26227717  0.61888609  0.83378258     0.13900
C559        C  0.28561166  0.61826377  0.78900132    -0.23800
H560        H  0.29511434  0.67089907  0.85923006     0.15100
H561        H  0.19041694  0.56810815  0.89469748     0.15200
C562        C  0.20701294  0.61162356  0.96856748    -0.23800
H563        H  0.30941490  0.64263437  0.78800935     0.05400
H564        H  0.26110894  0.62029709  0.75601589     0.08600
H565        H  0.30439766  0.59129608  0.78835682     0.08600
H566        H  0.17091044  0.60586111  0.96448604     0.08600
H567        H  0.21447401  0.63340964  0.99649144     0.08600
H568        H  0.22364196  0.58502926  0.98308405     0.05400
C569        C  0.30858766  0.92200364  0.85338337    -0.20400
C570        C  0.27994142  0.93313916  0.88668839    -0.07000
C571        C  0.23525787  0.92086594  0.87741479     0.13900
C572        C  0.22380867  0.89233169  0.84288527    -0.20500
C573        C  0.25546097  0.87309583  0.81894429    -0.07000
C574        C  0.29494426  0.89527802  0.81645581     0.13900
C575        C  0.31846941  0.89797893  0.77192553    -0.23800
H576        H  0.00159497  0.93574404  0.85278200     0.15100
H577        H  0.18940098  0.88582496  0.83549401     0.15200
C578        C  0.19897806  0.93628392  0.90403150    -0.23800
H579        H  0.98054691  0.92740377  0.76043999     0.05400
H580        H  0.29989562  0.88397929  0.73997768     0.08600
H581        H  0.01287316  0.88594677  0.77887756     0.08600
H582        H  0.19739039  0.96794565  0.89956703     0.08600
H583        H  0.20491581  0.92814876  0.94307185     0.08600
H584        H  0.16590123  0.92442689  0.89001976     0.05400
C585        C  0.23013960  0.76162308  0.81764851    -0.20400
C586        C  0.24492056  0.79766098  0.83643671    -0.07000
C587        C  0.25759964  0.79901758  0.88776023     0.13900
C588        C  0.25273785  0.76581625  0.91628343    -0.20500
C589        C  0.24194051  0.72921970  0.89650982    -0.07000
C590        C  0.22556794  0.72864529  0.84597614     0.13900
C591        C  0.19898600  0.69695193  0.81865305    -0.23800
H592        H  0.21889664  0.75946574  0.77960974     0.15100
H593        H  0.26156374  0.76789690  0.95494040     0.15200
C594        C  0.27798902  0.83339911  0.91474581    -0.23800
H595        H  0.16661981  0.70859393  0.80293234     0.05400
H596        H  0.19065206  0.67169698  0.83967096     0.08600
H597        H  0.21659641  0.68720491  0.78835525     0.08600
H598        H  0.25217056  0.85414232  0.92017731     0.08600
H599        H  0.30501426  0.84631625  0.89656619     0.08600
H600        H  0.29351149  0.82546168  0.95177298     0.05400
C601        C  0.14487706  0.63600433  0.57987642    -0.20400
C602        C  0.10822510  0.65933420  0.58610037    -0.07000
C603        C  0.08303930  0.64800242  0.62472741     0.13900
C604        C  0.09705255  0.61698954  0.65564565    -0.20500
C605        C  0.13517214  0.59600964  0.65019308    -0.07000
C606        C  0.15910668  0.60576150  0.61120797     0.13900
C607        C  0.20014009  0.58472830  0.60162032    -0.23800
H608        H  0.16348475  0.64065125  0.54994973     0.15100
H609        H  0.07799398  0.60957425  0.68504702     0.15200
C610        C  0.04160045  0.66784529  0.63589267    -0.23800
H611        H  0.21423241  0.59598528  0.56930923     0.05400
H612        H  0.19222397  0.55386944  0.59533358     0.08600
H613        H  0.22652010  0.58836272  0.63258915     0.08600
H614        H  0.04708601  0.67948154  0.67322406     0.08600
H615        H  0.03117214  0.69174213  0.61078189     0.08600
H616        H  0.01366433  0.64694659  0.63445224     0.05400
C617        C  0.03883422  0.71507343  0.98395355    -0.20400
C618        C  0.05090041  0.69171126  0.52108921    -0.07000
C619        C  0.02041568  0.65954298  0.51921339     0.13900
C620        C  0.30938425  0.66422284  0.49452600    -0.20500
C621        C  0.29751777  0.69395140  0.96083369    -0.07000
C622        C  0.33442931  0.71747618  0.95147016     0.13900
C623        C  0.34095824  0.73758336  0.90402893    -0.23800
H624        H  0.06454038  0.73335988  0.97409490     0.15100
H625        H  0.28546674  0.64204400  0.49905617     0.15200
C626        C  0.03089374  0.61819081  0.53351480    -0.23800
H627        H  0.03739302  0.72499398  0.89058995     0.05400
H628        H  0.34348920  0.76904294  0.90951104     0.08600
H629        H  0.31627533  0.73097396  0.87296626     0.08600
H630        H  0.01488547  0.60951117  0.56580893     0.08600
H631        H  0.06608645  0.61098992  0.53841279     0.08600
H632        H  0.34614289  0.59829004  0.50231193     0.05400
C633        C  0.17727834  0.71453235  0.53974308    -0.20400
C634        C  0.13529869  0.70080216  0.51847074    -0.07000
C635        C  0.13292348  0.68232356  0.96834087     0.13900
C636        C  0.16864773  0.68988842  0.94239532    -0.20500
C637        C  0.21143116  0.69920968  0.96491954    -0.07000
C638        C  0.21591714  0.71291930  0.51635523     0.13900
C639        C  0.25861108  0.72441086  0.54680168    -0.23800
H640        H  0.18080748  0.72358896  0.57717580     0.15100
H641        H  0.16429085  0.68259141  0.90473171     0.15200
C642        C  0.09899601  0.65378018  0.94500372    -0.23800
H643        H  0.25228407  0.74087896  0.57919784     0.05400
H644        H  0.27988505  0.74322863  0.52701514     0.08600
H645        H  0.27658246  0.69856604  0.56116623     0.08600
H646        H  0.06803263  0.66738854  0.92943519     0.08600
H647        H  0.09295394  0.63078958  0.97123388     0.08600
H648        H  0.11099313  0.63895961  0.91400665     0.05400
C649        C  0.04790990  0.92695479  0.63274081    -0.20400
C650        C  0.01923929  0.91910771  0.59092782    -0.07000
C651        C  0.99750029  0.88330184  0.58694148     0.13900
C652        C  0.00864752  0.85480311  0.62245057    -0.20500
C653        C  0.04251097  0.86007252  0.66203826    -0.07000
C654        C  0.05711151  0.89933040  0.66990596     0.13900
C655        C  0.07956418  0.91522768  0.71693932    -0.23800
H656        H  0.06146902  0.95575072  0.63765911     0.15100
H657        H  0.32893331  0.82665723  0.61195926     0.15200
C658        C  0.29634311  0.87509189  0.54363039    -0.23800
H659        H  0.06447109  0.94296176  0.72463813     0.05400
H660        H  0.11528017  0.92041159  0.71470376     0.08600
H661        H  0.07452188  0.89702972  0.74817221     0.08600
H662        H  0.31063331  0.87958006  0.50901554     0.08600
H663        H  0.26800834  0.89458131  0.54440598     0.08600
H664        H  0.28346787  0.84514856  0.54461095     0.05400
C665        C  0.11717685  0.83671980  0.76870140    -0.20400
C666        C  0.11038806  0.83603927  0.71806883    -0.07000
C667        C  0.14868891  0.84733856  0.69540643     0.13900
C668        C  0.19048735  0.84923456  0.72356099    -0.20500
C669        C  0.19708455  0.83368519  0.77085121    -0.07000
C670        C  0.15802982  0.82895130  0.79485643     0.13900
C671        C  0.15641433  0.81789736  0.84814246    -0.23800
H672        H  0.09084739  0.84347951  0.78907615     0.15100
H673        H  0.21879009  0.85972051  0.70691677     0.15200
C674        C  0.14829981  0.85948816  0.64305481    -0.23800
H675        H  0.16015381  0.78654618  0.85339719     0.05400
H676        H  0.12422324  0.82481960  0.86050812     0.08600
H677        H  0.18093601  0.83299609  0.87381715     0.08600
H678        H  0.16707831  0.88690280  0.64097647     0.08600
H679        H  0.11534465  0.86529505  0.62438873     0.08600
H680        H  0.16426323  0.83731581  0.62307307     0.05400
C681        C  0.31777162  0.79636691  0.69557993    -0.20400
C682        C  0.02727949  0.80602781  0.72229008    -0.07000
C683        C  0.02830506  0.80443639  0.77419925     0.13900
C684        C  0.99035555  0.81373177  0.79505108    -0.20500
C685        C  0.28180287  0.81705169  0.76609678    -0.07000
C686        C  0.27854747  0.80078028  0.71801690     0.13900
C687        C  0.23767313  0.78358708  0.68938411    -0.23800
H688        H  0.31504749  0.78382383  0.65997518     0.15100
H689        H  0.99372028  0.81763262  0.83389265     0.15200
C690        C  0.05655233  0.77704757  0.80714754    -0.23800
H691        H  0.24443182  0.75348894  0.68025407     0.05400
H692        H  0.22982271  0.79985252  0.65481962     0.08600
H693        H  0.20799725  0.78180330  0.70805809     0.08600
H694        H  0.05909497  0.78618907  0.84559235     0.08600
H695        H  0.09058651  0.77453761  0.79965543     0.08600
H696        H  0.04089036  0.74805397  0.80487061     0.05400
C697        C  0.07538369  0.79822924  0.60265996    -0.20400
C698        C  0.07682660  0.79116098  0.65351305    -0.07000
C699        C  0.09791695  0.75598480  0.66932379     0.13900
C700        C  0.11117320  0.73001711  0.63583869    -0.20500
C701        C  0.09871374  0.73324178  0.58550710    -0.07000
C702        C  0.08957214  0.77179669  0.56989226     0.13900
C703        C  0.10434882  0.79022306  0.52474860    -0.23800
H704        H  0.06808621  0.82614271  0.58734289     0.15100
H705        H  0.13063641  0.70592096  0.65011908     0.15200
C706        C  0.10657993  0.74339222  0.72108071    -0.23800
H707        H  0.12713831  0.81466484  0.53547040     0.05400
H708        H  0.07540801  0.80188892  0.50115960     0.08600
H709        H  0.12335469  0.77139148  0.50372692     0.08600
H710        H  0.07432251  0.73906456  0.73451244     0.08600
H711        H  0.12942484  0.76381044  0.74159023     0.08600
H712        H  0.12289082  0.71510713  0.72583655     0.05400
C713        C  0.39902683  0.82145702  0.18918101    -0.02600
C714        C  0.42910083  0.69208226  0.05289814    -0.02600
C715        C  0.57961036  0.82771515  0.29812178    -0.02600
C716        C  0.58360548  0.69107230  0.43292449    -0.02600
C717        C  0.38885358  0.18252357  0.19702898    -0.02600
C718        C  0.42241295  0.32091489  0.07067082    -0.02600
C719        C  0.57138226  0.19336633  0.31521667    -0.02600
C720        C  0.57439459  0.32983396  0.44842514    -0.02600
O721        O  0.56344183  0.54615676  0.27612974    -0.74600
O722        O  0.51273994  0.46812970  0.18973960    -0.74600
O723        O  0.51732799  0.54577021  0.18659241    -0.74600
O724        O  0.55827059  0.46882213  0.28117707    -0.74700
O725        O  0.49447557  0.47295492  0.31171536    -0.74600
O726        O  0.45342123  0.54911951  0.21696980    -0.74600
O727        O  0.44905184  0.47124978  0.22140898    -0.74600
O728        O  0.49947002  0.54992770  0.30675621    -0.74600
Ni729      Ni  0.54013552  0.50702607  0.23209143     1.25400
Ni730      Ni  0.47183439  0.51090397  0.26524837     1.25400
C731        C  0.53984472  0.56070797  0.30605063     0.87600
C732        C  0.47279759  0.45675558  0.19145107     0.87600
C733        C  0.47894834  0.56043870  0.18612767     0.87600
C734        C  0.53326358  0.45906529  0.31344009     0.87800
O735        O  0.33501030  0.97174188  0.43320958    -0.74600
O736        O  0.37634330  0.04078635  0.03605406    -0.74600
O737        O  0.37173465  0.96330507  0.02927881    -0.74600
O738        O  0.33804010  0.04948109  0.44198358    -0.74700
O739        O  0.60476379  0.04465488  0.46317358    -0.74600
O740        O  0.63684705  0.96276938  0.05215744    -0.74600
O741        O  0.64154326  0.04029200  0.05801771    -0.74600
O742        O  0.60208827  0.96757720  0.45795981    -0.74600
Ni743      Ni  0.35718739  0.00666703  0.48398265     1.25400
Ni744      Ni  0.61919319  0.00433706  0.00911783     1.25400
C745        C  0.62888181  0.95650274  0.42893416     0.87600
C746        C  0.34846505  0.05302426  0.06294692     0.87600
C747        C  0.34278625  0.94991119  0.05532556     0.87600
C748        C  0.63338370  0.05932947  0.43812104     0.87800
C749        C  0.54005307  0.39683783  0.42824147    -0.20400
C750        C  0.57149935  0.36912808  0.41931248    -0.07000
C751        C  0.59950069  0.37951259  0.38320812     0.13900
C752        C  0.58640538  0.40900934  0.34934461    -0.20500
C753        C  0.54888552  0.43120556  0.35311123    -0.07000
C754        C  0.52794269  0.42699933  0.39577353     0.13900
C755        C  0.49286314  0.45403641  0.40831665    -0.23800
H756        H  0.52328391  0.39468862  0.46025259     0.15100
H757        H  0.60545440  0.41443470  0.31939236     0.15200
C758        C  0.64288073  0.36013290  0.37920066    -0.23800
H759        H  0.48360823  0.44838814  0.44529201     0.05400
H760        H  0.46223961  0.45049326  0.38263566     0.08600
H761        H  0.50530978  0.48411219  0.40739016     0.08600
H762        H  0.63856057  0.32891777  0.37413220     0.08600
H763        H  0.66624878  0.36577830  0.41229170     0.08600
H764        H  0.65884258  0.37146291  0.34793523     0.05400
C765        C  0.62372530  0.15815708  0.37952834    -0.20400
C766        C  0.58332520  0.15581276  0.34763685    -0.07000
C767        C  0.56269933  0.11815826  0.34334549     0.13900
C768        C  0.58046802  0.08789054  0.37355205    -0.20500
C769        C  0.61947606  0.09185710  0.40524962    -0.07000
C770        C  0.64177069  0.12732552  0.40781734     0.13900
C771        C  0.34772507  0.13679307  0.44368844    -0.23800
H772        H  0.64183733  0.18492225  0.38253846     0.15100
H773        H  0.56391416  0.06007617  0.37199005     0.15200
C774        C  0.52378545  0.10644913  0.30706446    -0.23800
H775        H  0.36007491  0.16687089  0.44212841     0.05400
H776        H  0.70995567  0.11416448  0.43124404     0.08600
H777        H  0.34120203  0.13049795  0.48152222     0.08600
H778        H  0.52627785  0.11734972  0.27001124     0.08600
H779        H  0.49258634  0.11450362  0.32024884     0.08600
H780        H  0.52139939  0.07479992  0.30299230     0.05400
C781        C  0.56638758  0.22436619  0.39884471    -0.20400
C782        C  0.56704297  0.22932639  0.34826900    -0.07000
C783        C  0.55897807  0.26736971  0.33000626     0.13900
C784        C  0.55954464  0.29823659  0.36242462    -0.20500
C785        C  0.56769578  0.29382291  0.41357494    -0.07000
C786        C  0.56757581  0.25500471  0.43136548     0.13900
C787        C  0.56805137  0.24413659  0.48444899    -0.23800
H788        H  0.56391928  0.19590552  0.41405619     0.15100
H789        H  0.55248370  0.32610788  0.34659356     0.15200
C790        C  0.55020390  0.27699687  0.27649437    -0.23800
H791        H  0.53572539  0.25066559  0.49624087     0.05400
H792        H  0.59505453  0.25864044  0.50781552     0.08600
H793        H  0.57286558  0.21291602  0.49114811     0.08600
H794        H  0.51895220  0.26338127  0.26021725     0.08600
H795        H  0.57817769  0.26852034  0.25754527     0.08600
H796        H  0.54648166  0.30829526  0.26973284     0.05400
C797        C  0.43767833  0.39234023  0.08392987    -0.20400
C798        C  0.43240550  0.35594841  0.10659638    -0.07000
C799        C  0.44033627  0.35519910  0.15942039     0.13900
C800        C  0.44807793  0.38979792  0.18463932    -0.20500
C801        C  0.45515657  0.42431251  0.16107580    -0.07000
C802        C  0.44997574  0.42581116  0.11015830     0.13900
C803        C  0.45692399  0.46288107  0.08344457    -0.23800
H804        H  0.43294408  0.39444279  0.04465244     0.15100
H805        H  0.45334235  0.38928057  0.22409102     0.15200
C806        C  0.44813497  0.32058888  0.19316609    -0.23800
H807        H  0.45035596  0.45944538  0.04345828     0.05400
H808        H  0.49162953  0.47301156  0.09230471     0.08600
H809        H  0.43430130  0.48497787  0.09431133     0.08600
H810        H  0.41888884  0.31531826  0.21269624     0.08600
H811        H  0.47674705  0.32630768  0.22109510     0.08600
H812        H  0.45778905  0.29417558  0.17661111     0.05400
C813        C  0.68030751  0.35733833  0.04215360    -0.20400
C814        C  0.37616247  0.32529776  0.03627384    -0.07000
C815        C  0.35936819  0.29629112  0.50164466     0.13900
C816        C  0.65272683  0.30179501  0.47117178    -0.20500
C817        C  0.62203420  0.33004665  0.47927787    -0.07000
C818        C  0.63851800  0.36150269  0.01371613     0.13900
C819        C  0.61352774  0.39769387  0.02085741    -0.23800
H820        H  0.35595908  0.37673025  0.06989195     0.15100
H821        H  0.64517471  0.28223019  0.44164255     0.15200
C822        C  0.38216596  0.25944111  0.49192688    -0.23800
H823        H  0.62998654  0.41509413  0.05127775     0.05400
H824        H  0.57967199  0.39145700  0.02936040     0.08600
H825        H  0.61255627  0.41615041  0.98796092     0.08600
H826        H  0.41577524  0.26450730  0.48258010     0.08600
H827        H  0.36502933  0.24359197  0.46043928     0.08600
H828        H  0.38109004  0.23941375  0.52283817     0.05400
C829        C  0.45610518  0.32837084  0.49039144    -0.20400
C830        C  0.46330710  0.32250934  0.04029503    -0.07000
C831        C  0.50889233  0.32021756  0.06090346     0.13900
C832        C  0.54310339  0.32394473  0.03097043    -0.20500
C833        C  0.53499580  0.32580322  0.48044911    -0.07000
C834        C  0.48947671  0.32646992  0.45993686     0.13900
C835        C  0.47388925  0.32399458  0.40597712    -0.23800
H836        H  0.42342967  0.33457573  0.47300986     0.15100
H837        H  0.57664950  0.32150609  0.04813015     0.15200
C838        C  0.52355028  0.31387568  0.11428012    -0.23800
H839        H  0.48052230  0.29502420  0.39294835     0.05400
H840        H  0.48907376  0.34614864  0.38434043     0.08600
H841        H  0.43758825  0.32760471  0.39767550     0.08600
H842        H  0.55978169  0.30973073  0.12208941     0.08600
H843        H  0.50824311  0.28764371  0.12758128     0.08600
H844        H  0.51658874  0.33930367  0.13514308     0.05400
C845        C  0.33498563  0.11681900  0.09152051    -0.20400
C846        C  0.36108757  0.08445002  0.09708996    -0.07000
C847        C  0.39717054  0.08331373  0.13389439     0.13900
C848        C  0.40584129  0.11491951  0.16496856    -0.20500
C849        C  0.37903968  0.14813047  0.16071130    -0.07000
C850        C  0.34281234  0.14842710  0.12194091     0.13900
C851        C  0.64252618  0.17989215  0.11094315    -0.23800
H852        H  0.63989661  0.11621098  0.06245532     0.15100
H853        H  0.43234425  0.11221517  0.19435524     0.15200
C854        C  0.42516743  0.04807495  0.14195954    -0.23800
H855        H  0.65761769  0.20634202  0.09764666     0.05400
H856        H  0.29344657  0.18508861  0.14457978     0.08600
H857        H  0.61532590  0.17245052  0.08203439     0.08600
H858        H  0.44146364  0.04240664  0.10918249     0.08600
H859        H  0.40399803  0.02307619  0.14955168     0.08600
H860        H  0.45137645  0.05135801  0.17321878     0.05400
C861        C  0.47459949  0.17843376  0.20829667    -0.20400
C862        C  0.43569881  0.17871159  0.23100285    -0.07000
C863        C  0.44394798  0.17818377  0.28339837     0.13900
C864        C  0.48703331  0.18613664  0.30724429    -0.20500
C865        C  0.52494048  0.19014807  0.28271301    -0.07000
C866        C  0.51643368  0.18948055  0.23077213     0.13900
C867        C  0.54659731  0.20333664  0.19467045    -0.23800
H868        H  0.47349589  0.17009305  0.17133266     0.15100
H869        H  0.49183787  0.18550563  0.34661251     0.15200
C870        C  0.41251060  0.16159782  0.31672591    -0.28000
H871        H  0.52843952  0.22370401  0.16865553     0.05400
H872        H  0.55682286  0.17875551  0.17385111     0.08600
H873        H  0.57527819  0.21997372  0.21003778     0.08600
H874        H  0.38703007  0.14266194  0.29785266     0.08600
H875        H  0.39803175  0.18467528  0.33662753     0.08600
H876        H  0.43036838  0.14255926  0.34469367     0.05400
C877        C  0.61592433  0.16238494  0.25694738    -0.20400
C878        C  0.61211908  0.19513965  0.28529943    -0.07000
C879        C  0.31539008  0.22241928  0.29038342     0.13900
C880        C  0.35035237  0.21606307  0.26208462    -0.20500
C881        C  0.35092960  0.18471030  0.23036679    -0.07000
C882        C  0.65218389  0.15487772  0.23287213     0.13900
C883        C  0.65804090  0.11275312  0.22276925    -0.23800
H884        H  0.59053419  0.14048626  0.25560855     0.15100
H885        H  0.37770397  0.23645886  0.26380641     0.15200
C886        C  0.32234235  0.25583313  0.32479375    -0.23800
H887        H  0.63992909  0.09411077  0.24674431     0.05400
H888        H  0.69292768  0.10425409  0.23164265     0.08600
H889        H  0.64439303  0.10549530  0.18519109     0.08600
H890        H  0.35712487  0.26648559  0.32857492     0.08600
H891        H  0.31590829  0.24795860  0.36198655     0.08600
H892        H  0.30237704  0.28051779  0.31052996     0.05400
C893        C  0.37907677  0.28442135  0.12771177    -0.20400
C894        C  0.41440133  0.28296252  0.09916257    -0.07000
C895        C  0.43458114  0.24641403  0.09705431     0.13900
C896        C  0.42077855  0.21612105  0.12564762    -0.20500
C897        C  0.39224984  0.21943634  0.16217195    -0.07000
C898        C  0.36728823  0.25446158  0.15835071     0.13900
C899        C  0.32392594  0.26190830  0.17754287    -0.23800
H900        H  0.36053075  0.31077689  0.12711583     0.15100
H901        H  0.43035171  0.18803090  0.11560902     0.15200
C902        C  0.46732571  0.23439785  0.06330496    -0.23800
H903        H  0.66193619  0.28083835  0.20856682     0.05400
H904        H  0.30582716  0.23600932  0.18584038     0.08600
H905        H  0.63322877  0.27666408  0.14848036     0.08600
H906        H  0.49897028  0.22621933  0.08478766     0.08600
H907        H  0.47457152  0.25516930  0.03579837     0.08600
H908        H  0.45416440  0.20886584  0.04242542     0.05400
C909        C  0.60403401  0.64544338  0.36761150    -0.20400
C910        C  0.57947558  0.65112141  0.40703596    -0.07000
C911        C  0.55293517  0.61905499  0.41971751     0.13900
C912        C  0.54096642  0.59063587  0.38552471    -0.20500
C913        C  0.55879900  0.58960355  0.34166797    -0.07000
C914        C  0.59341828  0.61565696  0.33414856     0.13900
C915        C  0.61717704  0.61413860  0.28970679    -0.23800
H916        H  0.62864415  0.66645459  0.36004437     0.15100
H917        H  0.51806614  0.56809239  0.39404000     0.15200
C918        C  0.53919573  0.61012161  0.46902927    -0.23800
H919        H  0.64205872  0.63770157  0.28904023     0.05400
H920        H  0.59308803  0.61693947  0.25647052     0.08600
H921        H  0.63486984  0.58658962  0.28924445     0.08600
H922        H  0.50273672  0.60724148  0.46648547     0.08600
H923        H  0.55060689  0.63069222  0.49759976     0.08600
H924        H  0.55346025  0.58206046  0.48152065     0.05400
C925        C  0.64315393  0.91771201  0.35678860    -0.20400
C926        C  0.61333611  0.92976260  0.38829634    -0.07000
C927        C  0.56862761  0.91812501  0.37713709     0.13900
C928        C  0.55782672  0.88955246  0.34235473    -0.20500
C929        C  0.59007451  0.86971505  0.31979154    -0.07000
C930        C  0.63033477  0.89120023  0.31941844     0.13900
C931        C  0.65589701  0.89377226  0.27644771    -0.23800
H932        H  0.34100258  0.93463600  0.35682332     0.15100
H933        H  0.52340112  0.88365781  0.33354074     0.15200
C934        C  0.53164548  0.93456191  0.40175037    -0.23800
H935        H  0.32333396  0.92802038  0.26328170     0.05400
H936        H  0.63859544  0.87991238  0.24369540     0.08600
H937        H  0.35317473  0.88564015  0.28351652     0.08600
H938        H  0.53099943  0.96620745  0.39676009     0.08600
H939        H  0.53606840  0.92684889  0.44096455     0.08600
H940        H  0.49868559  0.92315423  0.38652720     0.05400
C941        C  0.56379714  0.75844439  0.31821823    -0.20400
C942        C  0.57893939  0.79438727  0.33697634    -0.07000
C943        C  0.59141030  0.79579804  0.38833582     0.13900
C944        C  0.58657245  0.76262094  0.41679059    -0.20500
C945        C  0.57562581  0.72610158  0.39699187    -0.07000
C946        C  0.55895339  0.72555232  0.34653715     0.13900
C947        C  0.53187721  0.69407230  0.31927430    -0.23800
H948        H  0.55245075  0.75630989  0.28023997     0.15100
H949        H  0.59556888  0.76458772  0.45541290     0.15200
C950        C  0.61170856  0.83016050  0.41542702    -0.23800
H951        H  0.49971363  0.70606124  0.30342378     0.05400
H952        H  0.52304320  0.66900548  0.34035347     0.08600
H953        H  0.54934061  0.68400224  0.28902922     0.08600
H954        H  0.58609921  0.85142866  0.41941859     0.08600
H955        H  0.63965969  0.84228476  0.39807550     0.08600
H956        H  0.62589431  0.82257358  0.45307793     0.05400
C957        C  0.47281768  0.63000825  0.07840108    -0.20400
C958        C  0.43824002  0.65515262  0.08643452    -0.07000
C959        C  0.41367086  0.64475178  0.12597005     0.13900
C960        C  0.42756427  0.61376767  0.15709947    -0.20500
C961        C  0.46424473  0.59137738  0.15017140    -0.07000
C962        C  0.48610845  0.59911614  0.10908224     0.13900
C963        C  0.52353180  0.57479307  0.09625151    -0.23800
H964        H  0.49029184  0.63358094  0.04733626     0.15100
H965        H  0.40960143  0.60744397  0.18772783     0.15200
C966        C  0.37314969  0.66559013  0.13792135    -0.23800
H967        H  0.53473511  0.58348886  0.06130958     0.05400
H968        H  0.51263476  0.54431921  0.09295725     0.08600
H969        H  0.55275150  0.57788652  0.12404470     0.08600
H970        H  0.37972443  0.67767591  0.17494347     0.08600
H971        H  0.36273293  0.68923878  0.11238507     0.08600
H972        H  0.34481758  0.64521737  0.13780513     0.05400
C973        C  0.37304634  0.71891286  0.48425807    -0.20400
C974        C  0.38222523  0.68938714  0.02133826    -0.07000
C975        C  0.34963079  0.65904780  0.02076692     0.13900
C976        C  0.63917299  0.66223799  0.99504954    -0.20500
C977        C  0.63199860  0.69084456  0.45994107    -0.07000
C978        C  0.66814712  0.71499133  0.44993445     0.13900
C979        C  0.67412014  0.73417568  0.40171579    -0.23800
H980        H  0.39905661  0.73697107  0.47454788     0.15100
H981        H  0.61471710  0.64094554  0.00102572     0.15200
C982        C  0.35741799  0.61737514  0.03540788    -0.23800
H983        H  0.37170800  0.72922651  0.39114886     0.05400
H984        H  0.67656532  0.76573493  0.40612170     0.08600
H985        H  0.64919585  0.72689959  0.37112662     0.08600
H986        H  0.34114023  0.60984500  0.06789874     0.08600
H987        H  0.39204196  0.60844167  0.03995343     0.08600
H988        H  0.67450023  0.59577099  0.00390638     0.05400
C989        C  0.50910143  0.70916811  0.04042667    -0.20400
C990        C  0.46691334  0.69598239  0.01932112    -0.07000
C991        C  0.46656120  0.68394770  0.46867017     0.13900
C992        C  0.50284698  0.68961127  0.44325164    -0.20500
C993        C  0.54600755  0.69660474  0.46617693    -0.07000
C994        C  0.54690789  0.70999491  0.01556555     0.13900
C995        C  0.58791997  0.72673441  0.04444039    -0.23800
H996        H  0.51316724  0.71812747  0.07794720     0.15100
H997        H  0.49821381  0.68265561  0.40549092     0.15200
C998        C  0.43143400  0.65664795  0.44486239    -0.23800
H999        H  0.57963964  0.75455258  0.05996330     0.05400
H1000       H  0.61569192  0.73349185  0.02405400     0.08600
H1001       H  0.59946289  0.70696987  0.07493185     0.08600
H1002       H  0.40118567  0.67132292  0.42928732     0.08600
H1003       H  0.42439212  0.63372583  0.47071105     0.08600
H1004       H  0.44277031  0.64149425  0.41373232     0.05400
C1005       C  0.38487121  0.92574445  0.13132152    -0.20400
C1006       C  0.35402688  0.91863738  0.09103842    -0.07000
C1007       C  0.33136390  0.88326341  0.08805186     0.13900
C1008       C  0.34360648  0.85439259  0.12267855    -0.20500
C1009       C  0.37900070  0.85882233  0.16085588    -0.07000
C1010       C  0.39549111  0.89776666  0.16785155     0.13900
C1011       C  0.42157856  0.91285790  0.21362216    -0.23800
H1012       H  0.39967191  0.95417454  0.13521393     0.15100
H1013       H  0.66244535  0.82517594  0.11316869     0.15200
C1014       C  0.62878979  0.87391442  0.04579685    -0.23800
H1015       H  0.41517408  0.94381413  0.21820358     0.05400
H1016       H  0.45759426  0.91040113  0.21243905     0.08600
H1017       H  0.41112114  0.89882514  0.24605940     0.08600
H1018       H  0.64224375  0.87841109  0.01069423     0.08600
H1019       H  0.60067805  0.89350181  0.04747298     0.08600
H1020       H  0.61580009  0.84401503  0.04696281     0.05400
C1021       C  0.45205056  0.83494761  0.26759057    -0.20400
C1022       C  0.44557394  0.83280988  0.21704404    -0.07000
C1023       C  0.48439950  0.84205298  0.19419878     0.13900
C1024       C  0.52593075  0.84459379  0.22278864    -0.20500
C1025       C  0.53194755  0.83029206  0.27068255    -0.07000
C1026       C  0.49253440  0.82646755  0.29424801     0.13900
C1027       C  0.49036825  0.81590476  0.34754651    -0.23800
H1028       H  0.42576207  0.84304781  0.28737767     0.15100
H1029       H  0.55444316  0.85456642  0.20615707     0.15200
C1030       C  0.48451700  0.85236627  0.14130655    -0.23800
H1031       H  0.49357394  0.78452854  0.35315650     0.05400
H1032       H  0.45822480  0.82348778  0.35950758     0.08600
H1033       H  0.51506212  0.83084794  0.37318029     0.08600
H1034       H  0.50501021  0.87864415  0.13775531     0.08600
H1035       H  0.45186765  0.85943159  0.12265220     0.08600
H1036       H  0.49878436  0.82862847  0.12232421     0.05400
C1037       C  0.65319672  0.79374012  0.19640937    -0.20400
C1038       C  0.36155290  0.80557370  0.22156157    -0.07000
C1039       C  0.36251508  0.80441509  0.27344464     0.13900
C1040       C  0.32475214  0.81454100  0.29412508    -0.20500
C1041       C  0.61679162  0.81337459  0.26705260    -0.07000
C1042       C  0.61392364  0.79729645  0.21888580     0.13900
C1043       C  0.57360936  0.77920550  0.19019394    -0.23800
H1044       H  0.65073130  0.78128939  0.16075536     0.15100
H1045       H  0.32814986  0.81864410  0.33294003     0.15200
C1046       C  0.39016424  0.77688680  0.30667446    -0.23800
H1047       H  0.58116468  0.74917518  0.18154953     0.05400
H1048       H  0.56568450  0.79506956  0.15534269     0.08600
H1049       H  0.54373204  0.77714074  0.20848423     0.08600
H1050       H  0.39314817  0.78656143  0.34490399     0.08600
H1051       H  0.42401028  0.77351773  0.29900228     0.08600
H1052       H  0.37372994  0.74820280  0.30498034     0.05400
C1053       C  0.40785542  0.79488081  0.10200479    -0.20400
C1054       C  0.41004842  0.78845928  0.15299622    -0.07000
C1055       C  0.43037804  0.75301497  0.16919985     0.13900
C1056       C  0.44317322  0.72654077  0.13602691    -0.20500
C1057       C  0.43088991  0.72960813  0.08572199    -0.07000
C1058       C  0.42200440  0.76811181  0.06966889     0.13900
C1059       C  0.43751654  0.78619463  0.02471714    -0.23800
H1060       H  0.40052250  0.82268212  0.08629860     0.15100
H1061       H  0.46203888  0.70215831  0.15049057     0.15200
C1062       C  0.43858626  0.74065457  0.22108801    -0.23800
H1063       H  0.46004811  0.81079187  0.03549560     0.05400
H1064       H  0.40889460  0.79760522  0.00038510     0.08600
H1065       H  0.45714928  0.76719391  0.00460375     0.08600
H1066       H  0.40620318  0.73733150  0.23455032     0.08600
H1067       H  0.46213362  0.76065306  0.24139203     0.08600
H1068       H  0.45391692  0.71196725  0.22615622     0.05400
C1069       C  0.39817251  0.82126554  0.68718667    -0.02600
C1070       C  0.43073165  0.69321257  0.55051911    -0.02600
C1071       C  0.57699090  0.82933379  0.79919792    -0.02600
C1072       C  0.58041753  0.69181078  0.93271099    -0.02600
C1073       C  0.38929387  0.18228977  0.69879356    -0.02600
C1074       C  0.42266077  0.31999133  0.57143295    -0.02600
C1075       C  0.57119713  0.19483766  0.81676235    -0.02600
C1076       C  0.57463222  0.33270087  0.94803131    -0.02600
O1077       O  0.56193365  0.54716956  0.77483348    -0.74600
O1078       O  0.51235348  0.46938990  0.68721123    -0.74600
O1079       O  0.51735311  0.54693356  0.68463676    -0.74600
O1080       O  0.55668214  0.46987862  0.77913926    -0.74700
O1081       O  0.49254260  0.47398132  0.80901477    -0.74600
O1082       O  0.45283250  0.55017469  0.71376307    -0.74600
O1083       O  0.44826709  0.47240057  0.71808599    -0.74600
O1084       O  0.49739787  0.55096769  0.80433411    -0.74600
Ni1085     Ni  0.53928789  0.50815034  0.73018371     1.25400
Ni1086     Ni  0.47044648  0.51197168  0.76227582     1.25400
C1087       C  0.53783657  0.56172411  0.80430377     0.87600
C1088       C  0.47236695  0.45793435  0.68846826     0.87600
C1089       C  0.47893042  0.56153318  0.68352302     0.87600
C1090       C  0.53141325  0.46016582  0.81111826     0.87800
O1091       O  0.33669957  0.97079331  0.93342892    -0.74600
O1092       O  0.37499198  0.04164657  0.53575697    -0.74600
O1093       O  0.37074115  0.96416546  0.52844497    -0.74600
O1094       O  0.34003941  0.04862348  0.94195768    -0.74700
O1095       O  0.60510663  0.04585102  0.96485481    -0.74600
O1096       O  0.63611252  0.96297408  0.55275806    -0.74600
O1097       O  0.64073129  0.04063501  0.55670297    -0.74600
O1098       O  0.60233486  0.96889013  0.95791952    -0.74600
Ni1099     Ni  0.35873307  0.00574863  0.98433161     1.25400
Ni1100     Ni  0.61864166  0.00386053  0.50852684     1.25400
C1101       C  0.62877831  0.95805290  0.92843123     0.87600
C1102       C  0.34731335  0.05363076  0.56306155     0.87600
C1103       C  0.34197282  0.95036726  0.55438528     0.87600
C1104       C  0.63347952  0.06086016  0.93972204     0.87800
C1105       C  0.53977801  0.39945229  0.92726612    -0.20400
C1106       C  0.57131109  0.37175205  0.91843866    -0.07000
C1107       C  0.59868512  0.38174709  0.88164858     0.13900
C1108       C  0.58485322  0.41062868  0.84724750    -0.20500
C1109       C  0.54718024  0.43262775  0.85100643    -0.07000
C1110       C  0.52673342  0.42890336  0.89402850     0.13900
C1111       C  0.49119063  0.45566600  0.90605752    -0.23800
H1112       H  0.52345103  0.39763263  0.95962059     0.15100
H1113       H  0.60347138  0.41571576  0.81686493     0.15200
C1114       C  0.64209612  0.36251421  0.87740029    -0.23800
H1115       H  0.48207434  0.45033371  0.94315506     0.05400
H1116       H  0.46062338  0.45145990  0.88046164     0.08600
H1117       H  0.50308432  0.48587291  0.90445610     0.08600
H1118       H  0.63796954  0.33123477  0.87281980     0.08600
H1119       H  0.66570172  0.36853600  0.91018424     0.08600
H1120       H  0.65763467  0.37363837  0.84573455     0.05400
C1121       C  0.62323963  0.16001955  0.88170160    -0.20400
C1122       C  0.58292869  0.15750766  0.84968941    -0.07000
C1123       C  0.56236623  0.11978356  0.84551729     0.13900
C1124       C  0.58036544  0.08953605  0.87557261    -0.20500
C1125       C  0.61926069  0.09363182  0.90736270    -0.07000
C1126       C  0.64120765  0.12927453  0.91026454     0.13900
C1127       C  0.35158965  0.13534331  0.93976283    -0.23800
H1128       H  0.64127218  0.18687938  0.88458886     0.15100
H1129       H  0.56405696  0.06161412  0.87387953     0.15200
C1130       C  0.52321729  0.10793559  0.80959519    -0.23800
H1131       H  0.36413611  0.16533648  0.93775176     0.05400
H1132       H  0.70930279  0.11657472  0.93480920     0.08600
H1133       H  0.34735897  0.12872679  0.97819151     0.08600
H1134       H  0.52560158  0.11836519  0.77232669     0.08600
H1135       H  0.49217813  0.11632431  0.82283486     0.08600
H1136       H  0.52048896  0.07626104  0.80602917     0.05400
C1137       C  0.56676304  0.22676476  0.90004584    -0.20400
C1138       C  0.56689285  0.23117834  0.84932868    -0.07000
C1139       C  0.55813066  0.26899084  0.83057033     0.13900
C1140       C  0.55919110  0.30024069  0.86250190    -0.20500
C1141       C  0.56793577  0.29637105  0.91368848    -0.07000
C1142       C  0.56822291  0.25772477  0.93210260     0.13900
C1143       C  0.56930334  0.24733208  0.98540434    -0.23800
H1144       H  0.56439427  0.19848077  0.91577360     0.15100
H1145       H  0.55176971  0.32792842  0.84629802     0.15200
C1146       C  0.54788884  0.27793479  0.77702184    -0.23800
H1147       H  0.53703538  0.25368597  0.99740914     0.05400
H1148       H  0.59625142  0.26221530  0.00838216     0.08600
H1149       H  0.57455564  0.21621512  0.99253334     0.08600
H1150       H  0.51626983  0.26419121  0.76201832     0.08600
H1151       H  0.57521005  0.26909497  0.75730678     0.08600
H1152       H  0.54410498  0.30916072  0.76978177     0.05400
C1153       C  0.43836189  0.39158410  0.58246191    -0.20400
C1154       C  0.43287112  0.35566176  0.60624709    -0.07000
C1155       C  0.44036337  0.35599391  0.65901053     0.13900
C1156       C  0.44735609  0.39112233  0.68309610    -0.20500
C1157       C  0.45516602  0.42506814  0.65861238    -0.07000
C1158       C  0.45103664  0.42545748  0.60768635     0.13900
C1159       C  0.45962053  0.46166178  0.57989593    -0.23800
H1160       H  0.43379402  0.39292833  0.54314399     0.15100
H1161       H  0.45188029  0.39139601  0.72255567     0.15200
C1162       C  0.44848564  0.32215983  0.69390830    -0.23800
H1163       H  0.45394287  0.45729448  0.54002122     0.05400
H1164       H  0.49447449  0.47121838  0.58938097     0.08600
H1165       H  0.43729285  0.48458469  0.58915547     0.08600
H1166       H  0.41962420  0.31762863  0.71426985     0.08600
H1167       H  0.47756913  0.32845784  0.72096115     0.08600
H1168       H  0.45757875  0.29520096  0.67822401     0.05400
C1169       C  0.67978502  0.35442838  0.54256555    -0.20400
C1170       C  0.37614725  0.32400074  0.53759435    -0.07000
C1171       C  0.35979908  0.29783171  0.99981611     0.13900
C1172       C  0.65311478  0.30482089  0.97075340    -0.20500
C1173       C  0.62245055  0.33310606  0.97874983    -0.07000
C1174       C  0.63790602  0.35838855  0.51444412     0.13900
C1175       C  0.61267766  0.39434929  0.52220109    -0.23800
H1176       H  0.35602769  0.37501056  0.57212382     0.15100
H1177       H  0.64571308  0.28559583  0.94082469     0.15200
C1178       C  0.38255283  0.26087852  0.99053859    -0.23800
H1179       H  0.62894697  0.41144374  0.55301441     0.05400
H1180       H  0.57881546  0.38793760  0.53050349     0.08600
H1181       H  0.61176966  0.41323639  0.48970997     0.08600
H1182       H  0.41661026  0.26582627  0.98253961     0.08600
H1183       H  0.36612553  0.24536040  0.95839908     0.08600
H1184       H  0.38038933  0.24069636  0.02112307     0.05400
C1185       C  0.45623793  0.33044309  0.98990627    -0.20400
C1186       C  0.46328759  0.32090749  0.54086427    -0.07000
C1187       C  0.50880868  0.31821188  0.56143986     0.13900
C1188       C  0.54291986  0.32079536  0.53132908    -0.20500
C1189       C  0.53522008  0.32876464  0.98007355    -0.07000
C1190       C  0.48968279  0.32906729  0.95950039     0.13900
C1191       C  0.47404756  0.32658643  0.90552295    -0.23800
H1192       H  0.42359366  0.33655690  0.97243393     0.15100
H1193       H  0.57641706  0.31776368  0.54841846     0.15200
C1194       C  0.52346793  0.31286088  0.61500983    -0.23800
H1195       H  0.48062730  0.29760149  0.89252268     0.05400
H1196       H  0.48910851  0.34872649  0.88378090     0.08600
H1197       H  0.43774247  0.33016925  0.89722837     0.08600
H1198       H  0.55965030  0.30848563  0.62293349     0.08600
H1199       H  0.50788855  0.28712985  0.62926174     0.08600
H1200       H  0.51678683  0.33884081  0.63500686     0.05400
C1201       C  0.33335972  0.11674598  0.59397442    -0.20400
C1202       C  0.36019703  0.08479982  0.59772433    -0.07000
C1203       C  0.39743918  0.08393427  0.63314984     0.13900
C1204       C  0.40619533  0.11509589  0.66498858    -0.20500
C1205       C  0.37895225  0.14799688  0.66224020    -0.07000
C1206       C  0.34179702  0.14822265  0.62457245     0.13900
C1207       C  0.64188277  0.17963566  0.61200572    -0.23800
H1208       H  0.63960484  0.11673027  0.56200675     0.15100
H1209       H  0.43340574  0.11236528  0.69355319     0.15200
C1210       C  0.42687596  0.04948672  0.63881355    -0.23800
H1211       H  0.65702752  0.20616504  0.59903729     0.05400
H1212       H  0.29301077  0.18468987  0.64868652     0.08600
H1213       H  0.61470544  0.17245362  0.58295197     0.08600
H1214       H  0.44224319  0.04525466  0.60506194     0.08600
H1215       H  0.40704874  0.02361506  0.64631576     0.08600
H1216       H  0.45388408  0.05284836  0.66924152     0.05400
C1217       C  0.47482965  0.17793890  0.71035580    -0.20400
C1218       C  0.43594389  0.17843970  0.73298490    -0.07000
C1219       C  0.44411612  0.17911075  0.78545059     0.13900
C1220       C  0.48705184  0.18778120  0.80898754    -0.20500
C1221       C  0.52487196  0.19132830  0.78434680    -0.07000
C1222       C  0.51643707  0.18976888  0.73246744     0.13900
C1223       C  0.54640023  0.20332666  0.69601550    -0.23800
H1224       H  0.47378997  0.16909916  0.67354521     0.15100
H1225       H  0.49186787  0.18801341  0.84835661     0.15200
C1226       C  0.41288690  0.16356739  0.81975098    -0.28000
H1227       H  0.52800372  0.22328438  0.66964633     0.05400
H1228       H  0.55673354  0.17852747  0.67565495     0.08600
H1229       H  0.57503698  0.22021880  0.71096652     0.08600
H1230       H  0.38684217  0.14464784  0.80201499     0.08600
H1231       H  0.39914553  0.18725232  0.83931640     0.08600
H1232       H  0.43079834  0.14480654  0.84800602     0.05400
C1233       C  0.61545009  0.16285202  0.75899276    -0.20400
C1234       C  0.61185372  0.19602140  0.78667172    -0.07000
C1235       C  0.31565514  0.22225175  0.79133320     0.13900
C1236       C  0.35074579  0.21601139  0.76336857    -0.20500
C1237       C  0.35164124  0.18452355  0.73208851    -0.07000
C1238       C  0.65128848  0.15493387  0.73442116     0.13900
C1239       C  0.65577908  0.11287077  0.72299258    -0.23800
H1240       H  0.58988519  0.14115610  0.75808522     0.15100
H1241       H  0.37795323  0.23655699  0.76501677     0.15200
C1242       C  0.32246064  0.25576870  0.82561385    -0.23800
H1243       H  0.63687786  0.09418493  0.74614151     0.05400
H1244       H  0.69034900  0.10344246  0.73174256     0.08600
H1245       H  0.64205471  0.10658966  0.68514616     0.08600
H1246       H  0.35731036  0.26627166  0.82980168     0.08600
H1247       H  0.31571236  0.24805812  0.86273888     0.08600
H1248       H  0.30280784  0.28050833  0.81090381     0.05400
C1249       C  0.38003398  0.28420412  0.62962052    -0.20400
C1250       C  0.41499681  0.28240140  0.60067121    -0.07000
C1251       C  0.43503254  0.24578615  0.59863839     0.13900
C1252       C  0.42137425  0.21571132  0.62760362    -0.20500
C1253       C  0.39281643  0.21919695  0.66403302    -0.07000
C1254       C  0.36816172  0.25440849  0.66035825     0.13900
C1255       C  0.32496941  0.26229273  0.67971973    -0.23800
H1256       H  0.36176207  0.31069750  0.62913850     0.15100
H1257       H  0.43097987  0.18756650  0.61783049     0.15200
C1258       C  0.46736163  0.23343421  0.56453051    -0.23800
H1259       H  0.66129480  0.28091592  0.70779071     0.05400
H1260       H  0.30645344  0.23654632  0.68763847     0.08600
H1261       H  0.63330198  0.27500784  0.64754453     0.08600
H1262       H  0.49951583  0.22618034  0.58560522     0.08600
H1263       H  0.47348570  0.25354636  0.53583156     0.08600
H1264       H  0.45444182  0.20726614  0.54485890     0.05400
C1265       C  0.59977331  0.64750074  0.86557888    -0.20400
C1266       C  0.57634202  0.65198744  0.90619500    -0.07000
C1267       C  0.55113892  0.61899666  0.91914101     0.13900
C1268       C  0.54000454  0.59032963  0.88487554    -0.20500
C1269       C  0.55637451  0.59061646  0.84012398    -0.07000
C1270       C  0.58898131  0.61821393  0.83149654     0.13900
C1271       C  0.60985877  0.61906217  0.78497879    -0.23800
H1272       H  0.62324042  0.66925287  0.85736620     0.15100
H1273       H  0.51843807  0.56684204  0.89365991     0.15200
C1274       C  0.53735936  0.60952825  0.96841387    -0.23800
H1275       H  0.63287065  0.64392837  0.78328148     0.05400
H1276       H  0.58378381  0.62136216  0.75343532     0.08600
H1277       H  0.62906213  0.59258362  0.78214421     0.08600
H1278       H  0.50113139  0.60456058  0.96534132     0.08600
H1279       H  0.54621774  0.63084914  0.99672039     0.08600
H1280       H  0.55355250  0.58243772  0.98178460     0.05400
C1281       C  0.64164193  0.91937346  0.85558278    -0.20400
C1282       C  0.61257496  0.93151609  0.88789154    -0.07000
C1283       C  0.56769049  0.92003111  0.87778303     0.13900
C1284       C  0.55618958  0.89119136  0.84363931    -0.20500
C1285       C  0.58790664  0.87122859  0.82058506    -0.07000
C1286       C  0.62784361  0.89281223  0.81856894     0.13900
C1287       C  0.65127248  0.89567140  0.77396450    -0.23800
H1288       H  0.34074610  0.93585174  0.85411209     0.15100
H1289       H  0.52169684  0.88524817  0.83553203     0.15200
C1290       C  0.53119800  0.93702843  0.90267889    -0.23800
H1291       H  0.32217462  0.92855650  0.76116356     0.05400
H1292       H  0.63265622  0.88169426  0.74201923     0.08600
H1293       H  0.35177145  0.88580359  0.78043596     0.08600
H1294       H  0.53097291  0.96866378  0.89748955     0.08600
H1295       H  0.53575713  0.92942717  0.94192298     0.08600
H1296       H  0.49799103  0.92595385  0.88779625     0.05400
C1297       C  0.55959425  0.76032089  0.81923357    -0.20400
C1298       C  0.57574640  0.79597468  0.83802014    -0.07000
C1299       C  0.58879830  0.79702988  0.88929969     0.13900
C1300       C  0.58427120  0.76361161  0.91756409    -0.20500
C1301       C  0.57235628  0.72729493  0.89750470    -0.07000
C1302       C  0.55466905  0.72733039  0.84735451     0.13900
C1303       C  0.52663804  0.69634422  0.82022374    -0.23800
H1304       H  0.54746925  0.75851264  0.78148041     0.15100
H1305       H  0.59409252  0.76524454  0.95611442     0.15200
C1306       C  0.60920596  0.83134231  0.91641695    -0.23800
H1307       H  0.49411282  0.70859667  0.80612628     0.05400
H1308       H  0.51874804  0.67075447  0.84084663     0.08600
H1309       H  0.54287541  0.68689336  0.78876393     0.08600
H1310       H  0.58359327  0.85258834  0.92063089     0.08600
H1311       H  0.63695392  0.84369160  0.89891747     0.08600
H1312       H  0.62360848  0.82359245  0.95392081     0.05400
C1313       C  0.47470147  0.63138386  0.57643224    -0.20400
C1314       C  0.43993797  0.65643620  0.58409280    -0.07000
C1315       C  0.41485565  0.64600848  0.62317559     0.13900
C1316       C  0.42833018  0.61501242  0.65428486    -0.20500
C1317       C  0.46489264  0.59250568  0.64759318    -0.07000
C1318       C  0.48730429  0.60020173  0.60690990     0.13900
C1319       C  0.52442852  0.57542304  0.59432272    -0.23800
H1320       H  0.49260869  0.63515466  0.54573919     0.15100
H1321       H  0.41003372  0.60869873  0.68465361     0.15200
C1322       C  0.37404120  0.66669127  0.63459047    -0.23800
H1323       H  0.53605590  0.58409184  0.55968814     0.05400
H1324       H  0.51302275  0.54508468  0.59070595     0.08600
H1325       H  0.55354325  0.57807525  0.62232301     0.08600
H1326       H  0.38007036  0.67853860  0.67177643     0.08600
H1327       H  0.36384985  0.69048337  0.60921220     0.08600
H1328       H  0.34570928  0.64624297  0.63371883     0.05400
C1329       C  0.37228288  0.71813260  0.98565043    -0.20400
C1330       C  0.38396927  0.68982544  0.51909104    -0.07000
C1331       C  0.35228759  0.65868301  0.51805827     0.13900
C1332       C  0.64349360  0.66060183  0.49310065    -0.20500
C1333       C  0.62888232  0.69105668  0.95949921    -0.07000
C1334       C  0.66568721  0.71408312  0.94851118     0.13900
C1335       C  0.67098661  0.73397893  0.90064213    -0.23800
H1336       H  0.39862862  0.73597623  0.97636875     0.15100
H1337       H  0.62001620  0.63789315  0.49698109     0.15200
C1338       C  0.36130030  0.61705598  0.53210264    -0.23800
H1339       H  0.37259014  0.72820859  0.89221045     0.05400
H1340       H  0.67463259  0.76537129  0.90622035     0.08600
H1341       H  0.64516401  0.72821387  0.87043677     0.08600
H1342       H  0.34575073  0.60894147  0.56490454     0.08600
H1343       H  0.39616790  0.60884882  0.53598534     0.08600
H1344       H  0.68284597  0.59559263  0.50091923     0.05400
C1345       C  0.51089430  0.71031624  0.53906128    -0.20400
C1346       C  0.46872295  0.69754992  0.51721995    -0.07000
C1347       C  0.46428969  0.68213778  0.97087101     0.13900
C1348       C  0.49991263  0.68838426  0.94452067    -0.20500
C1349       C  0.54307527  0.69711567  0.96632096    -0.07000
C1350       C  0.54957222  0.70881605  0.51567242     0.13900
C1351       C  0.59231206  0.71989310  0.54626775    -0.23800
H1352       H  0.51439056  0.71883860  0.57670264     0.15100
H1353       H  0.49487632  0.68071270  0.90704218     0.15200
C1354       C  0.42942266  0.65404323  0.94827763    -0.23800
H1355       H  0.58608061  0.73581880  0.57912198     0.05400
H1356       H  0.61345359  0.73907369  0.52676217     0.08600
H1357       H  0.61030152  0.69388330  0.55995330     0.08600
H1358       H  0.39884167  0.66814786  0.93249463     0.08600
H1359       H  0.42286710  0.63157337  0.97496723     0.08600
H1360       H  0.44075300  0.63845680  0.91748619     0.05400
C1361       C  0.38441052  0.92574730  0.62960002    -0.20400
C1362       C  0.35354014  0.91880406  0.58938749    -0.07000
C1363       C  0.33119582  0.88333033  0.58581086     0.13900
C1364       C  0.34341736  0.85433800  0.62023019    -0.20500
C1365       C  0.37856696  0.85872496  0.65873608    -0.07000
C1366       C  0.39502656  0.89767518  0.66594164     0.13900
C1367       C  0.42083198  0.91288690  0.71179292    -0.23800
H1368       H  0.39911729  0.95420999  0.63367186     0.15100
H1369       H  0.65973124  0.82589309  0.61567745     0.15200
C1370       C  0.62678505  0.87463616  0.54794550    -0.23800
H1371       H  0.41458902  0.94390744  0.71609983     0.05400
H1372       H  0.45687662  0.91027174  0.71103643     0.08600
H1373       H  0.40988234  0.89926013  0.74417448     0.08600
H1374       H  0.64035084  0.87846098  0.51279889     0.08600
H1375       H  0.59906148  0.89470104  0.54926712     0.08600
H1376       H  0.61317060  0.84497220  0.54954410     0.05400
C1377       C  0.44975626  0.83581347  0.76636919    -0.20400
C1378       C  0.44440765  0.83258105  0.71583139    -0.07000
C1379       C  0.48365211  0.84208517  0.69376051     0.13900
C1380       C  0.52438183  0.84668576  0.72346940    -0.20500
C1381       C  0.52969464  0.83253187  0.77140693    -0.07000
C1382       C  0.48994666  0.82851069  0.79419220     0.13900
C1383       C  0.48694580  0.81831254  0.84746232    -0.23800
H1384       H  0.42289470  0.84384140  0.78531662     0.15100
H1385       H  0.55329263  0.85646886  0.70747072     0.15200
C1386       C  0.48494382  0.84809518  0.64005200    -0.23800
H1387       H  0.48908660  0.78687812  0.85319166     0.05400
H1388       H  0.45485448  0.82681162  0.85885851     0.08600
H1389       H  0.51201854  0.83251082  0.87342822     0.08600
H1390       H  0.51479340  0.86481048  0.63274060     0.08600
H1391       H  0.45647397  0.86453653  0.62284509     0.08600
H1392       H  0.48736869  0.82002153  0.62255630     0.05400
C1393       C  0.65040346  0.79390026  0.69808743    -0.20400
C1394       C  0.36032964  0.80533849  0.71912901    -0.07000
C1395       C  0.36142544  0.80362735  0.77098419     0.13900
C1396       C  0.32422137  0.81453898  0.79204723    -0.20500
C1397       C  0.61405782  0.81471200  0.76829596    -0.07000
C1398       C  0.61112696  0.79792387  0.72046201     0.13900
C1399       C  0.57075983  0.77974519  0.69202125    -0.23800
H1400       H  0.64798845  0.78127808  0.66251582     0.15100
H1401       H  0.32807342  0.81851082  0.83088740     0.15200
C1402       C  0.38923695  0.77601138  0.80395795    -0.23800
H1403       H  0.57796530  0.74939261  0.68460382     0.05400
H1404       H  0.56334580  0.79491128  0.65658875     0.08600
H1405       H  0.54062489  0.77864427  0.70984301     0.08600
H1406       H  0.39188364  0.78520998  0.84236579     0.08600
H1407       H  0.42327195  0.77331977  0.79658759     0.08600
H1408       H  0.37317568  0.74717289  0.80177420     0.05400
C1409       C  0.40765082  0.79543803  0.59999347    -0.20400
C1410       C  0.40946893  0.78853983  0.65089815    -0.07000
C1411       C  0.43049903  0.75337778  0.66696410     0.13900
C1412       C  0.44421164  0.72749350  0.63369335    -0.20500
C1413       C  0.43185653  0.73061488  0.58340536    -0.07000
C1414       C  0.42223968  0.76900966  0.56747913     0.13900
C1415       C  0.43768066  0.78738521  0.52264741    -0.23800
H1416       H  0.40187480  0.82379864  0.58519795     0.15100
H1417       H  0.46365052  0.70338458  0.64803965     0.15200
C1418       C  0.43891656  0.74087880  0.71879561    -0.23800
H1419       H  0.45989397  0.81216758  0.53347634     0.05400
H1420       H  0.40896923  0.79858378  0.49826640     0.08600
H1421       H  0.45757817  0.76856619  0.50257335     0.08600
H1422       H  0.40656491  0.73685690  0.73213227     0.08600
H1423       H  0.46191402  0.76119518  0.73932526     0.08600
H1424       H  0.45500522  0.71249423  0.72374100     0.05400
C1425       C  0.73288580  0.81931773  0.18716914    -0.02600
C1426       C  0.76138625  0.69028983  0.04961637    -0.02600
C1427       C  0.91294572  0.82887803  0.29727119    -0.02600
C1428       C  0.91705300  0.69338341  0.43416834    -0.02600
C1429       C  0.72221080  0.18296386  0.19485475    -0.02600
C1430       C  0.75575527  0.32280942  0.07144702    -0.02600
C1431       C  0.90417930  0.19487973  0.31376831    -0.02600
C1432       C  0.90744949  0.33125463  0.44796745    -0.02600
O1433       O  0.89783399  0.54837931  0.27652982    -0.74600
O1434       O  0.84668231  0.47003087  0.19040278    -0.74600
O1435       O  0.85151616  0.54747200  0.18682742    -0.74600
O1436       O  0.89229182  0.47096015  0.28189335    -0.74700
O1437       O  0.82863769  0.47554202  0.31261337    -0.74600
O1438       O  0.78756685  0.55084555  0.21716528    -0.74600
O1439       O  0.78316178  0.47328462  0.22234290    -0.74600
O1440       O  0.83385341  0.55249808  0.30705013    -0.74600
Ni1441     Ni  0.87430059  0.50902645  0.23263443     1.25400
Ni1442     Ni  0.80606761  0.51317647  0.26586515     1.25400
C1443       C  0.87432391  0.56310736  0.30645648     0.87600
C1444       C  0.80667860  0.45878839  0.19213203     0.87600
C1445       C  0.81288510  0.56169965  0.18593367     0.87600
C1446       C  0.86726119  0.46139247  0.31420542     0.87800
O1447       O  0.66924802  0.96822154  0.43467251    -0.74600
O1448       O  0.70949522  0.03984585  0.03582869    -0.74600
O1449       O  0.70450711  0.96228386  0.02926313    -0.74600
O1450       O  0.67283770  0.04620012  0.44139953    -0.74700
O1451       O  0.93830898  0.04590511  0.46159852    -0.74600
O1452       O  0.96781033  0.96197456  0.05184923    -0.74600
O1453       O  0.97352541  0.03946349  0.05812822    -0.74600
O1454       O  0.93633024  0.96887268  0.45570359    -0.74600
Ni1455     Ni  0.69124686  0.00382634  0.48464431     1.25400
Ni1456     Ni  0.95033735  0.00382663  0.00909732     1.25400
C1457       C  0.96336540  0.95804186  0.42681459     0.87600
C1458       C  0.68177322  0.05243873  0.06264349     0.87600
C1459       C  0.67561619  0.94887188  0.05535352     0.87600
C1460       C  0.96693196  0.06081711  0.43672554     0.87800
C1461       C  0.87293472  0.39823030  0.42798431    -0.20400
C1462       C  0.90449867  0.37060324  0.41903144    -0.07000
C1463       C  0.93271886  0.38116885  0.38324284     0.13900
C1464       C  0.92000697  0.41103289  0.34980550    -0.20500
C1465       C  0.88256389  0.43330410  0.35364147    -0.07000
C1466       C  0.86118081  0.42871334  0.39594039     0.13900
C1467       C  0.82596002  0.45561722  0.40852766    -0.23800
H1468       H  0.85586895  0.39585340  0.45975309     0.15100
H1469       H  0.93929294  0.41667746  0.32010479     0.15200
C1470       C  0.97601878  0.36164349  0.37923415    -0.23800
H1471       H  0.81634040  0.44959977  0.44526718     0.05400
H1472       H  0.79551920  0.45232315  0.38250421     0.08600
H1473       H  0.83845361  0.48570244  0.40822670     0.08600
H1474       H  0.97156491  0.33045914  0.37381196     0.08600
H1475       H  0.99928852  0.36697503  0.41248992     0.08600
H1476       H  0.99218717  0.37314027  0.34819907     0.05400
C1477       C  0.95713130  0.15952487  0.37734739    -0.20400
C1478       C  0.91619956  0.15734054  0.34631909    -0.07000
C1479       C  0.89522651  0.11980093  0.34278689     0.13900
C1480       C  0.91301323  0.08964814  0.37320453    -0.20500
C1481       C  0.95278464  0.09332754  0.40373842    -0.07000
C1482       C  0.97571603  0.12850151  0.40493303     0.13900
C1483       C  0.68394590  0.13327421  0.44157870    -0.23800
H1484       H  0.97547715  0.18623136  0.37973275     0.15100
H1485       H  0.89601616  0.06204175  0.37242044     0.15200
C1486       C  0.85610869  0.10797505  0.30688508    -0.23800
H1487       H  0.69654777  0.16328424  0.44011392     0.05400
H1488       H  0.04417710  0.11431616  0.42410971     0.08600
H1489       H  0.67804398  0.12676885  0.47955606     0.08600
H1490       H  0.85829848  0.11878272  0.26972425     0.08600
H1491       H  0.82508138  0.11598933  0.32040343     0.08600
H1492       H  0.85376261  0.07631240  0.30294491     0.05400
C1493       C  0.89985386  0.22587151  0.39767652    -0.20400
C1494       C  0.89990785  0.23088892  0.34700798    -0.07000
C1495       C  0.89111831  0.26894284  0.32903667     0.13900
C1496       C  0.89251022  0.29983824  0.36163180    -0.20500
C1497       C  0.90095241  0.29532098  0.41279807    -0.07000
C1498       C  0.90074660  0.25644269  0.43031547     0.13900
C1499       C  0.90044461  0.24544906  0.48323588    -0.23800
H1500       H  0.89776449  0.19738352  0.41288787     0.15100
H1501       H  0.88550539  0.32778883  0.34597666     0.15200
C1502       C  0.88044190  0.27851272  0.27568128    -0.23800
H1503       H  0.86792305  0.25210968  0.49438319     0.05400
H1504       H  0.92718837  0.25981671  0.50710786     0.08600
H1505       H  0.90495079  0.21419592  0.48990578     0.08600
H1506       H  0.84891349  0.26464994  0.26062887     0.08600
H1507       H  0.90771233  0.27022697  0.25555527     0.08600
H1508       H  0.87614418  0.30977320  0.26904173     0.05400
C1509       C  0.77154841  0.39418200  0.08439631    -0.20400
C1510       C  0.76507984  0.35804812  0.10722403    -0.07000
C1511       C  0.77155121  0.35772938  0.16014744     0.13900
C1512       C  0.77937713  0.39249451  0.18503541    -0.20500
C1513       C  0.78861848  0.42650786  0.16148480    -0.07000
C1514       C  0.78479948  0.42753956  0.11054502     0.13900
C1515       C  0.79451752  0.46390181  0.08368328    -0.23800
H1516       H  0.76770097  0.39600507  0.04509805     0.15100
H1517       H  0.78317710  0.39236275  0.22449140     0.15200
C1518       C  0.77697553  0.32345602  0.19478006    -0.23800
H1519       H  0.78869854  0.46022485  0.04369587     0.05400
H1520       H  0.82967032  0.47244733  0.09339130     0.08600
H1521       H  0.77296684  0.48720670  0.09356191     0.08600
H1522       H  0.74645772  0.31900428  0.21238827     0.08600
H1523       H  0.80436558  0.32908294  0.22421379     0.08600
H1524       H  0.78713277  0.29656236  0.17975532     0.05400
C1525       C  0.01345273  0.35639251  0.04291155    -0.20400
C1526       C  0.70962979  0.32685390  0.03661073    -0.07000
C1527       C  0.69323496  0.29658339  0.50021717     0.13900
C1528       C  0.98554226  0.30303638  0.47232069    -0.20500
C1529       C  0.95492664  0.33158498  0.47933719    -0.07000
C1530       C  0.97166859  0.36019497  0.01440034     0.13900
C1531       C  0.94660648  0.39646231  0.02109875    -0.23800
H1532       H  0.68909977  0.37833535  0.06991569     0.15100
H1533       H  0.97831045  0.28344618  0.44275274     0.15200
C1534       C  0.71623867  0.25974505  0.49093025    -0.23800
H1535       H  0.96290984  0.41400636  0.05146015     0.05400
H1536       H  0.91268466  0.39040397  0.02945571     0.08600
H1537       H  0.94581775  0.41478174  0.98810346     0.08600
H1538       H  0.75016808  0.26482774  0.48263564     0.08600
H1539       H  0.69981708  0.24404509  0.45893604     0.08600
H1540       H  0.71426583  0.23956640  0.52154165     0.05400
C1541       C  0.78911552  0.32950300  0.48972858    -0.20400
C1542       C  0.79677938  0.32384640  0.04124582    -0.07000
C1543       C  0.84228088  0.32285454  0.06216350     0.13900
C1544       C  0.87647303  0.32347775  0.03202708    -0.20500
C1545       C  0.86798721  0.32711008  0.47986650    -0.07000
C1546       C  0.82249707  0.32769294  0.45929165     0.13900
C1547       C  0.80695921  0.32530890  0.40530514    -0.23800
H1548       H  0.75648985  0.33576317  0.47227416     0.15100
H1549       H  0.90993453  0.32101653  0.04942559     0.15200
C1550       C  0.85692446  0.32303311  0.11621287    -0.23800
H1551       H  0.81368283  0.29638820  0.39218836     0.05400
H1552       H  0.82209469  0.34756321  0.38376709     0.08600
H1553       H  0.77064758  0.32883767  0.39697423     0.08600
H1554       H  0.89297350  0.31819485  0.12493205     0.08600
H1555       H  0.84046429  0.30004267  0.13503991     0.08600
H1556       H  0.85084830  0.35137440  0.13133456     0.05400
C1557       C  0.66793613  0.11640779  0.09063366    -0.20400
C1558       C  0.69459131  0.08433971  0.09598244    -0.07000
C1559       C  0.73167107  0.08405582  0.13155473     0.13900
C1560       C  0.74033026  0.11588050  0.16221641    -0.20500
C1561       C  0.71281482  0.14863959  0.15845190    -0.07000
C1562       C  0.67602013  0.14839557  0.12038724     0.13900
C1563       C  0.97644305  0.17926624  0.10899628    -0.23800
H1564       H  0.97411269  0.11586984  0.06058539     0.15100
H1565       H  0.76741493  0.11360253  0.19099248     0.15200
C1566       C  0.76089557  0.04950553  0.13876660    -0.23800
H1567       H  0.99186402  0.20562033  0.09593959     0.05400
H1568       H  0.62629861  0.18440948  0.14359592     0.08600
H1569       H  0.94966413  0.17197509  0.07954888     0.08600
H1570       H  0.77645254  0.04432050  0.10536207     0.08600
H1571       H  0.74087266  0.02394392  0.14707955     0.08600
H1572       H  0.78776241  0.05340939  0.16922938     0.05400
C1573       C  0.80788466  0.17970876  0.20646780    -0.20400
C1574       C  0.76895906  0.17952571  0.22904728    -0.07000
C1575       C  0.77706255  0.17915150  0.28152480     0.13900
C1576       C  0.81993526  0.18760675  0.30545953    -0.20500
C1577       C  0.85787405  0.19159650  0.28109736    -0.07000
C1578       C  0.84957715  0.19083329  0.22911640     0.13900
C1579       C  0.87986093  0.20468929  0.19316150    -0.23800
H1580       H  0.80683537  0.17168475  0.16933871     0.15100
H1581       H  0.82462419  0.18725058  0.34483613     0.15200
C1582       C  0.74584060  0.16240047  0.31504248    -0.28000
H1583       H  0.86163557  0.22456139  0.16650573     0.05400
H1584       H  0.89077817  0.18003904  0.17296515     0.08600
H1585       H  0.90799507  0.22185547  0.20874588     0.08600
H1586       H  0.72072423  0.14300969  0.29644386     0.08600
H1587       H  0.73105962  0.18539991  0.33477202     0.08600
H1588       H  0.76388628  0.14380821  0.34336442     0.05400
C1589       C  0.94845421  0.16320805  0.25581515    -0.20400
C1590       C  0.94477141  0.19633738  0.28360341    -0.07000
C1591       C  0.64973835  0.22098542  0.28984986     0.13900
C1592       C  0.68374811  0.21570763  0.26012241    -0.20500
C1593       C  0.68441898  0.18453141  0.22824251    -0.07000
C1594       C  0.98477818  0.15506857  0.23214284     0.13900
C1595       C  0.98997221  0.11284959  0.22206531    -0.23800
H1596       H  0.92282485  0.14151516  0.25466291     0.15100
H1597       H  0.71072156  0.23647646  0.26153652     0.15200
C1598       C  0.65780681  0.25337584  0.32577689    -0.23800
H1599       H  0.97072029  0.09444511  0.24518104     0.05400
H1600       H  0.02455396  0.10378850  0.23194402     0.08600
H1601       H  0.97717556  0.10585581  0.18416439     0.08600
H1602       H  0.69309742  0.26267172  0.33048188     0.08600
H1603       H  0.65073899  0.24501590  0.36256246     0.08600
H1604       H  0.63920791  0.27905522  0.31233620     0.05400
C1605       C  0.71181167  0.28539910  0.12708636    -0.20400
C1606       C  0.74822803  0.28488484  0.10006505    -0.07000
C1607       C  0.76974222  0.24890157  0.09844379     0.13900
C1608       C  0.75401214  0.21752203  0.12394767    -0.20500
C1609       C  0.72513227  0.22009054  0.16023479    -0.07000
C1610       C  0.70000124  0.25500218  0.15701307     0.13900
C1611       C  0.65664142  0.26198106  0.17638936    -0.23800
H1612       H  0.69272849  0.31146718  0.12629237     0.15100
H1613       H  0.76362135  0.18963048  0.11327781     0.15200
C1614       C  0.80666835  0.24000507  0.06837625    -0.23800
H1615       H  0.99114119  0.28071075  0.20258985     0.05400
H1616       H  0.63868906  0.23583348  0.18398399     0.08600
H1617       H  0.96472840  0.27183658  0.14215587     0.08600
H1618       H  0.83886426  0.25061233  0.08590011     0.08600
H1619       H  0.80060196  0.25101215  0.03103040     0.08600
H1620       H  0.81115831  0.20867223  0.06479458     0.05400
C1621       C  0.93815647  0.64814655  0.36849008    -0.20400
C1622       C  0.91379380  0.65334211  0.40821695    -0.07000
C1623       C  0.88802494  0.62076131  0.42099408     0.13900
C1624       C  0.87609656  0.59244395  0.38656003    -0.20500
C1625       C  0.89347350  0.59189352  0.34238067    -0.07000
C1626       C  0.92791353  0.61821782  0.33500353     0.13900
C1627       C  0.95209872  0.61658643  0.29090459    -0.23800
H1628       H  0.96233592  0.66955556  0.36082129     0.15100
H1629       H  0.85357835  0.56960958  0.39510254     0.15200
C1630       C  0.87505778  0.61130828  0.47057417    -0.23800
H1631       H  0.97702247  0.64013726  0.29045481     0.05400
H1632       H  0.92830967  0.61925804  0.25741523     0.08600
H1633       H  0.96981310  0.58901591  0.29081231     0.08600
H1634       H  0.83878659  0.60714437  0.46845157     0.08600
H1635       H  0.88554911  0.63231942  0.49890151     0.08600
H1636       H  0.89063131  0.58377570  0.48318882     0.05400
C1637       C  0.97803462  0.91843247  0.35529768    -0.20400
C1638       C  0.94795911  0.93139552  0.38596934    -0.07000
C1639       C  0.90304001  0.92064648  0.37387633     0.13900
C1640       C  0.89204479  0.89187980  0.33940665    -0.20500
C1641       C  0.92420992  0.87102652  0.31808402    -0.07000
C1642       C  0.96509237  0.89169228  0.31816925     0.13900
C1643       C  0.99135145  0.89322448  0.27575614    -0.23800
H1644       H  0.67577798  0.93088088  0.35902648     0.15100
H1645       H  0.85754452  0.88651835  0.32983979     0.15200
C1646       C  0.86596792  0.93830862  0.39712657    -0.23800
H1647       H  0.66018480  0.92434364  0.26596488     0.05400
H1648       H  0.97416399  0.87934369  0.24295613     0.08600
H1649       H  0.68902552  0.88159017  0.28675932     0.08600
H1650       H  0.86663849  0.96994348  0.39200604     0.08600
H1651       H  0.86906034  0.93068661  0.43634407     0.08600
H1652       H  0.83291747  0.92776169  0.38094316     0.05400
C1653       C  0.89577866  0.76006999  0.31875646    -0.20400
C1654       C  0.91150607  0.79605143  0.33680456    -0.07000
C1655       C  0.92383889  0.79791971  0.38815119     0.13900
C1656       C  0.91874230  0.76504085  0.41719299    -0.20500
C1657       C  0.90832431  0.72825649  0.39792241    -0.07000
C1658       C  0.89131465  0.72734448  0.34753032     0.13900
C1659       C  0.86434281  0.69558708  0.32067728    -0.23800
H1660       H  0.88406128  0.75767925  0.28089981     0.15100
H1661       H  0.92763069  0.76739010  0.45578808     0.15200
C1662       C  0.94467083  0.83237896  0.41451710    -0.23800
H1663       H  0.83177380  0.70719245  0.30542952     0.05400
H1664       H  0.85646884  0.67024473  0.34176145     0.08600
H1665       H  0.88144990  0.68584255  0.28999546     0.08600
H1666       H  0.91953850  0.85426508  0.41763394     0.08600
H1667       H  0.97305588  0.84359847  0.39714509     0.08600
H1668       H  0.95842207  0.82512945  0.45239078     0.05400
C1669       C  0.80485146  0.62822491  0.07542718    -0.20400
C1670       C  0.77048277  0.65359379  0.08337461    -0.07000
C1671       C  0.74609531  0.64377744  0.12323423     0.13900
C1672       C  0.76057854  0.61365915  0.15533975    -0.20500
C1673       C  0.79746719  0.59145910  0.14887470    -0.07000
C1674       C  0.81851386  0.59796127  0.10697030     0.13900
C1675       C  0.85527974  0.57286251  0.09425538    -0.23800
H1676       H  0.82178992  0.63122284  0.04387378     0.15100
H1677       H  0.74298089  0.60794674  0.18640739     0.15200
C1678       C  0.70541130  0.66458597  0.13479841    -0.23800
H1679       H  0.86530647  0.58014675  0.05839788     0.05400
H1680       H  0.84419595  0.54240254  0.09300154     0.08600
H1681       H  0.88520159  0.57666025  0.12092178     0.08600
H1682       H  0.71196459  0.67729068  0.17148208     0.08600
H1683       H  0.69464400  0.68777179  0.10870388     0.08600
H1684       H  0.67730889  0.64403881  0.13530633     0.05400
C1685       C  0.70621128  0.71634084  0.48360668    -0.20400
C1686       C  0.71464665  0.68674165  0.01782793    -0.07000
C1687       C  0.68220451  0.65630401  0.01825376     0.13900
C1688       C  0.97585443  0.65982018  0.99444252    -0.20500
C1689       C  0.96544357  0.69393771  0.46164723    -0.07000
C1690       C  0.00108662  0.71898103  0.45246232     0.13900
C1691       C  0.00711777  0.73831109  0.40438763    -0.23800
H1692       H  0.73210574  0.73451308  0.47381558     0.15100
H1693       H  0.95224250  0.63735323  0.99891939     0.15200
C1694       C  0.69071570  0.61473688  0.03292251    -0.23800
H1695       H  0.70565943  0.72463709  0.38984128     0.05400
H1696       H  0.00880042  0.76988359  0.40874550     0.08600
H1697       H  0.98263968  0.73044957  0.37359840     0.08600
H1698       H  0.67595019  0.60728768  0.06642491     0.08600
H1699       H  0.72545430  0.60614893  0.03584434     0.08600
H1700       H  0.01408523  0.59435060  0.00267054     0.05400
C1701       C  0.84188790  0.70749041  0.03920639    -0.20400
C1702       C  0.79991560  0.69458698  0.01691117    -0.07000
C1703       C  0.80031305  0.68313919  0.47002107     0.13900
C1704       C  0.83626432  0.68999139  0.44446274    -0.20500
C1705       C  0.87914956  0.69820935  0.46729262    -0.07000
C1706       C  0.88078318  0.70665941  0.01611659     0.13900
C1707       C  0.92315099  0.71829700  0.04701885    -0.23800
H1708       H  0.84508848  0.71583349  0.07688882     0.15100
H1709       H  0.83184100  0.68277696  0.40683829     0.15200
C1710       C  0.76670441  0.65421411  0.44687656    -0.23800
H1711       H  0.91635001  0.73459880  0.07937151     0.05400
H1712       H  0.94440728  0.73736455  0.02752513     0.08600
H1713       H  0.94126648  0.69251316  0.06137037     0.08600
H1714       H  0.73542989  0.66730900  0.43139582     0.08600
H1715       H  0.76133419  0.63113165  0.47316584     0.08600
H1716       H  0.77868205  0.63951053  0.41577534     0.05400
C1717       C  0.71801134  0.92423923  0.13066919    -0.20400
C1718       C  0.68692388  0.91736690  0.09061590    -0.07000
C1719       C  0.66448945  0.88191845  0.08724146     0.13900
C1720       C  0.67724515  0.85275834  0.12127118    -0.20500
C1721       C  0.71301275  0.85692342  0.15915446    -0.07000
C1722       C  0.72934237  0.89592431  0.16656469     0.13900
C1723       C  0.75560253  0.91087653  0.21234591    -0.23800
H1724       H  0.73257979  0.95276101  0.13475605     0.15100
H1725       H  0.99695113  0.82370091  0.11179537     0.15200
C1726       C  0.96284171  0.87176642  0.04376371    -0.23800
H1727       H  0.75188469  0.94236119  0.21563619     0.05400
H1728       H  0.79142243  0.90627917  0.21263827     0.08600
H1729       H  0.74302609  0.89860860  0.24470946     0.08600
H1730       H  0.97707897  0.87680732  0.00921178     0.08600
H1731       H  0.93389148  0.89056092  0.04456726     0.08600
H1732       H  0.95092842  0.84151880  0.04452248     0.05400
C1733       C  0.78526503  0.83455700  0.26522416    -0.20400
C1734       C  0.77952618  0.83049711  0.21487650    -0.07000
C1735       C  0.81845311  0.83982286  0.19210246     0.13900
C1736       C  0.85945567  0.84504200  0.22130395    -0.20500
C1737       C  0.86535591  0.83173682  0.26963766    -0.07000
C1738       C  0.82577863  0.82811101  0.29289818     0.13900
C1739       C  0.82332003  0.81952204  0.34663753    -0.23800
H1740       H  0.75826512  0.84239453  0.28407888     0.15100
H1741       H  0.88808578  0.85485652  0.20480541     0.15200
C1742       C  0.81880420  0.84569662  0.13821620    -0.23800
H1743       H  0.82584231  0.78827049  0.35388522     0.05400
H1744       H  0.79131232  0.82830172  0.35798127     0.08600
H1745       H  0.84839421  0.83473019  0.37152347     0.08600
H1746       H  0.84900341  0.86152703  0.13010442     0.08600
H1747       H  0.79059931  0.86290759  0.12185216     0.08600
H1748       H  0.81974850  0.81757286  0.12045744     0.05400
C1749       C  0.98625839  0.79357309  0.19603966    -0.20400
C1750       C  0.69556653  0.80336245  0.21984136    -0.07000
C1751       C  0.69685894  0.80120365  0.27184846     0.13900
C1752       C  0.65911024  0.81051559  0.29320235    -0.20500
C1753       C  0.94991896  0.81353917  0.26657689    -0.07000
C1754       C  0.94699106  0.79730812  0.21849484     0.13900
C1755       C  0.90668777  0.77893187  0.19017769    -0.23800
H1756       H  0.98374934  0.78107921  0.16042232     0.15100
H1757       H  0.66268380  0.81382561  0.33215239     0.15200
C1758       C  0.72657383  0.77507876  0.30503928    -0.23800
H1759       H  0.91429469  0.74881873  0.18198511     0.05400
H1760       H  0.89855433  0.79447044  0.15510892     0.08600
H1761       H  0.87694498  0.77704298  0.20868800     0.08600
H1762       H  0.73016793  0.78543670  0.34301233     0.08600
H1763       H  0.76017602  0.77237350  0.29621433     0.08600
H1764       H  0.71128341  0.74596141  0.30489032     0.05400
C1765       C  0.74007881  0.79315732  0.09951479    -0.20400
C1766       C  0.74313070  0.78648992  0.15054105    -0.07000
C1767       C  0.76372033  0.75110102  0.16621484     0.13900
C1768       C  0.77599034  0.72484781  0.13256677    -0.20500
C1769       C  0.76251226  0.72779643  0.08240442    -0.07000
C1770       C  0.75279967  0.76619494  0.06643734     0.13900
C1771       C  0.76628071  0.78394526  0.02033483    -0.23800
H1772       H  0.73456206  0.82159564  0.08483137     0.15100
H1773       H  0.79553813  0.70071484  0.14659075     0.15200
C1774       C  0.77325252  0.73882092  0.21808008    -0.23800
H1775       H  0.78767044  0.80957282  0.02944722     0.05400
H1776       H  0.73661807  0.79376338  0.99633197     0.08600
H1777       H  0.78672277  0.76528002  0.00069683     0.08600
H1778       H  0.74133700  0.73531867  0.23255573     0.08600
H1779       H  0.79701158  0.75901225  0.23780063     0.08600
H1780       H  0.78893337  0.71024831  0.22279412     0.05400
C1781       C  0.73025724  0.81973804  0.68947983    -0.02600
C1782       C  0.76355957  0.69208863  0.55124747    -0.02600
C1783       C  0.91012915  0.82747324  0.79987711    -0.02600
C1784       C  0.91583717  0.68976502  0.93373512    -0.02600
C1785       C  0.72171701  0.18198101  0.69618357    -0.02600
C1786       C  0.75555583  0.32042546  0.57068863    -0.02600
C1787       C  0.90346848  0.19393176  0.81587826    -0.02600
C1788       C  0.90799929  0.33099105  0.94883090    -0.02600
O1789       O  0.89728463  0.54565612  0.77552202    -0.74600
O1790       O  0.84619012  0.46799144  0.68858749    -0.74600
O1791       O  0.85201972  0.54551184  0.68530895    -0.74600
O1792       O  0.89090303  0.46847082  0.78036457    -0.74700
O1793       O  0.82685749  0.47316786  0.81025478    -0.74600
O1794       O  0.78792744  0.54961911  0.71511594    -0.74600
O1795       O  0.78221926  0.47190153  0.71953286    -0.74600
O1796       O  0.83306030  0.54999057  0.80552476    -0.74600
Ni1797     Ni  0.87380049  0.50670096  0.73115058     1.25400
Ni1798     Ni  0.80522511  0.51130976  0.76358924     1.25400
C1799       C  0.87366511  0.56025525  0.80542091     0.87600
C1800       C  0.80603548  0.45705049  0.68991376     0.87600
C1801       C  0.81382544  0.56056209  0.68446007     0.87600
C1802       C  0.86553664  0.45900035  0.81236866     0.87800
O1803       O  0.66917700  0.96970062  0.93383020    -0.74600
O1804       O  0.70896154  0.03959006  0.53538723    -0.74600
O1805       O  0.70396685  0.96194317  0.53046669    -0.74600
O1806       O  0.67285908  0.04766574  0.94221054    -0.74700
O1807       O  0.93643808  0.04551825  0.96500764    -0.74600
O1808       O  0.96955300  0.96387956  0.55065921    -0.74600
O1809       O  0.97361491  0.04148842  0.55550593    -0.74600
O1810       O  0.93265230  0.96866467  0.95776585    -0.74600
Ni1811     Ni  0.69151434  0.00472708  0.98442053     1.25400
Ni1812     Ni  0.95217317  0.00492184  0.50670088     1.25400
C1813       C  0.95887209  0.95738783  0.92827595     0.87600
C1814       C  0.68105492  0.05261879  0.56166277     0.87600
C1815       C  0.67487305  0.94898425  0.55660005     0.87600
C1816       C  0.96469687  0.06005124  0.93935887     0.87800
C1817       C  0.87258160  0.39753171  0.92787590    -0.20400
C1818       C  0.90464045  0.37017162  0.91949392    -0.07000
C1819       C  0.93253855  0.38062005  0.88338901     0.13900
C1820       C  0.91905036  0.40973821  0.84918052    -0.20500
C1821       C  0.88090886  0.43130789  0.85226377    -0.07000
C1822       C  0.85951869  0.42691608  0.89459035     0.13900
C1823       C  0.82280194  0.45276038  0.90580929    -0.23800
H1824       H  0.85590913  0.39556868  0.95996235     0.15100
H1825       H  0.93827643  0.41529514  0.81940989     0.15200
C1826       C  0.97614663  0.36155803  0.87965495    -0.23800
H1827       H  0.81273665  0.44678861  0.94236463     0.05400
H1828       H  0.79294923  0.44819618  0.87924971     0.08600
H1829       H  0.83394828  0.48321439  0.90506762     0.08600
H1830       H  0.97214630  0.33027138  0.87489197     0.08600
H1831       H  0.99939056  0.36752220  0.91274414     0.08600
H1832       H  0.99203811  0.37285715  0.84832232     0.05400
C1833       C  0.95499881  0.15895413  0.88104062    -0.20400
C1834       C  0.91493371  0.15649083  0.84863341    -0.07000
C1835       C  0.89444231  0.11877004  0.84408949     0.13900
C1836       C  0.91201667  0.08855408  0.87451848    -0.20500
C1837       C  0.95066121  0.09267327  0.90673605    -0.07000
C1838       C  0.97278880  0.12820254  0.90961879     0.13900
C1839       C  0.68290927  0.13548174  0.94465801    -0.23800
H1840       H  0.97307516  0.18575494  0.88416724     0.15100
H1841       H  0.89566888  0.06065057  0.87267432     0.15200
C1842       C  0.85595640  0.10690592  0.80730473    -0.23800
H1843       H  0.69522987  0.16559146  0.94344850     0.05400
H1844       H  0.04086433  0.11527331  0.93389104     0.08600
H1845       H  0.67649083  0.12887438  0.98243371     0.08600
H1846       H  0.85886973  0.11763126  0.77027299     0.08600
H1847       H  0.82455271  0.11501185  0.81989028     0.08600
H1848       H  0.85358758  0.07523967  0.80344734     0.05400
C1849       C  0.89841589  0.22539398  0.89940663    -0.20400
C1850       C  0.89906456  0.23007417  0.84876587    -0.07000
C1851       C  0.89136138  0.26810737  0.83037631     0.13900
C1852       C  0.89295030  0.29917929  0.86269113    -0.20500
C1853       C  0.90129379  0.29491826  0.91394063    -0.07000
C1854       C  0.90054127  0.25617998  0.93185301     0.13900
C1855       C  0.90094576  0.24559975  0.98502629    -0.23800
H1856       H  0.89530019  0.19704495  0.91474582     0.15100
H1857       H  0.88630026  0.32704006  0.84667069     0.15200
C1858       C  0.88195111  0.27743175  0.77682551    -0.23800
H1859       H  0.86873009  0.25252490  0.99689072     0.05400
H1860       H  0.92808702  0.26002539  0.00828206     0.08600
H1861       H  0.90544840  0.21436574  0.99189283     0.08600
H1862       H  0.85045549  0.26385266  0.76113737     0.08600
H1863       H  0.90955817  0.26858311  0.75752508     0.08600
H1864       H  0.87837684  0.30871432  0.76983053     0.05400
C1865       C  0.77065317  0.39198234  0.58303341    -0.20400
C1866       C  0.76537758  0.35576569  0.60616428    -0.07000
C1867       C  0.77305424  0.35547132  0.65898728     0.13900
C1868       C  0.78072488  0.39027915  0.68373327    -0.20500
C1869       C  0.78823476  0.42452510  0.65977635    -0.07000
C1870       C  0.78328891  0.42559975  0.60884776     0.13900
C1871       C  0.79089836  0.46234106  0.58170104    -0.23800
H1872       H  0.76590237  0.39377872  0.54373753     0.15100
H1873       H  0.78569618  0.39010609  0.72319262     0.15200
C1874       C  0.78054151  0.32114858  0.69324879    -0.23800
H1875       H  0.78471309  0.45852845  0.54175216     0.05400
H1876       H  0.82564803  0.47230366  0.59083404     0.08600
H1877       H  0.76835407  0.48475319  0.59191355     0.08600
H1878       H  0.75106309  0.31606890  0.71246487     0.08600
H1879       H  0.80890376  0.32708292  0.72140876     0.08600
H1880       H  0.79041997  0.29459560  0.67718436     0.05400
C1881       C  0.01210366  0.35619581  0.54321562    -0.20400
C1882       C  0.70931201  0.32429696  0.53646588    -0.07000
C1883       C  0.69341483  0.29921888  0.00016645     0.13900
C1884       C  0.98631267  0.30289541  0.97257501    -0.20500
C1885       C  0.95570019  0.33143011  0.97982308    -0.07000
C1886       C  0.97054486  0.36012328  0.51437040     0.13900
C1887       C  0.94532525  0.39623746  0.52134816    -0.23800
H1888       H  0.68850700  0.37526027  0.57055492     0.15100
H1889       H  0.97866412  0.28300205  0.94340682     0.15200
C1890       C  0.71638052  0.26248631  0.99006917    -0.23800
H1891       H  0.96126979  0.41349395  0.55217361     0.05400
H1892       H  0.91129833  0.38992659  0.52920912     0.08600
H1893       H  0.94492004  0.41492954  0.48872382     0.08600
H1894       H  0.74852173  0.26808323  0.97709364     0.08600
H1895       H  0.69775140  0.24547319  0.96054348     0.08600
H1896       H  0.71826501  0.24299344  0.02172494     0.05400
C1897       C  0.78985004  0.33041895  0.99059391    -0.20400
C1898       C  0.79624842  0.32185287  0.54020231    -0.07000
C1899       C  0.84174656  0.31934166  0.56082792     0.13900
C1900       C  0.87586834  0.32217564  0.53077655    -0.20500
C1901       C  0.86864864  0.32706699  0.98093789    -0.07000
C1902       C  0.82317413  0.32746513  0.96031856     0.13900
C1903       C  0.80755627  0.32395992  0.90645115    -0.23800
H1904       H  0.75742395  0.33695107  0.97284930     0.15100
H1905       H  0.90933549  0.31926255  0.54796657     0.15200
C1906       C  0.85635302  0.31365209  0.61435239    -0.23800
H1907       H  0.81423338  0.29472881  0.89430740     0.05400
H1908       H  0.82266967  0.34572455  0.88418109     0.08600
H1909       H  0.77124305  0.32741813  0.89801787     0.08600
H1910       H  0.89256074  0.30942941  0.62229322     0.08600
H1911       H  0.84091952  0.28770083  0.62824360     0.08600
H1912       H  0.84947305  0.33941347  0.63465670     0.05400
C1913       C  0.66742245  0.11653210  0.59045495    -0.20400
C1914       C  0.69400039  0.08441301  0.59527724    -0.07000
C1915       C  0.73093497  0.08374935  0.63107743     0.13900
C1916       C  0.73919862  0.11497569  0.66282165    -0.20500
C1917       C  0.71183365  0.14778685  0.65953827    -0.07000
C1918       C  0.67532245  0.14807477  0.62105837     0.13900
C1919       C  0.97520033  0.18066335  0.61222134    -0.23800
H1920       H  0.97219287  0.11762021  0.56235033     0.15100
H1921       H  0.76611826  0.11234733  0.69173515     0.15200
C1922       C  0.76065204  0.04948755  0.63714334    -0.23800
H1923       H  0.99053978  0.20705889  0.59910336     0.05400
H1924       H  0.62560638  0.18384263  0.64469635     0.08600
H1925       H  0.94782637  0.17357994  0.58335097     0.08600
H1926       H  0.77651837  0.04546133  0.60367156     0.08600
H1927       H  0.74096081  0.02344249  0.64427284     0.08600
H1928       H  0.78730539  0.05298108  0.66791295     0.05400
C1929       C  0.80759126  0.17815399  0.70810319    -0.20400
C1930       C  0.76847711  0.17824752  0.73040615    -0.07000
C1931       C  0.77635447  0.17808901  0.78283437     0.13900
C1932       C  0.81913894  0.18668321  0.80699258    -0.20500
C1933       C  0.85727398  0.19059276  0.78287641    -0.07000
C1934       C  0.84924355  0.18939263  0.73091208     0.13900
C1935       C  0.87991540  0.20262491  0.69508593    -0.23800
H1936       H  0.80681090  0.16973783  0.67116707     0.15100
H1937       H  0.82359793  0.18641665  0.84636472     0.15200
C1938       C  0.74500675  0.16097429  0.81592281    -0.28000
H1939       H  0.86205189  0.22241334  0.66808376     0.05400
H1940       H  0.89068979  0.17764583  0.67537300     0.08600
H1941       H  0.90814205  0.21971519  0.71062706     0.08600
H1942       H  0.72035015  0.14136449  0.79687807     0.08600
H1943       H  0.72959776  0.18375184  0.83540798     0.08600
H1944       H  0.76309404  0.14252114  0.84438741     0.05400
C1945       C  0.94864854  0.16235197  0.75858210    -0.20400
C1946       C  0.94460491  0.19534911  0.78644839    -0.07000
C1947       C  0.64943548  0.22183576  0.79035025     0.13900
C1948       C  0.68362896  0.21569742  0.76106537    -0.20500
C1949       C  0.68394441  0.18417914  0.72956639    -0.07000
C1950       C  0.98486300  0.15474635  0.73446658     0.13900
C1951       C  0.99026333  0.11270021  0.72361507    -0.23800
H1952       H  0.92324684  0.14049537  0.75724700     0.15100
H1953       H  0.71077583  0.23626277  0.76210644     0.15200
C1954       C  0.65700341  0.25521571  0.82476927    -0.23800
H1955       H  0.97191315  0.09393101  0.74721890     0.05400
H1956       H  0.02506078  0.10388688  0.73231775     0.08600
H1957       H  0.97657420  0.10595677  0.68588164     0.08600
H1958       H  0.69184158  0.26569532  0.82806248     0.08600
H1959       H  0.65106027  0.24728287  0.86210732     0.08600
H1960       H  0.63710352  0.28003360  0.81083078     0.05400
C1961       C  0.71241590  0.28404865  0.62783813    -0.20400
C1962       C  0.74782115  0.28261002  0.59940389    -0.07000
C1963       C  0.76804262  0.24608585  0.59720187     0.13900
C1964       C  0.75400047  0.21573250  0.62542120    -0.20500
C1965       C  0.72517906  0.21892497  0.66160428    -0.07000
C1966       C  0.70026843  0.25394022  0.65792886     0.13900
C1967       C  0.65655025  0.26120821  0.67642563    -0.23800
H1968       H  0.69390931  0.31041805  0.62737605     0.15100
H1969       H  0.76367096  0.18766469  0.61538494     0.15200
C1970       C  0.80094106  0.23406601  0.56360180    -0.23800
H1971       H  0.99431849  0.28112621  0.70986605     0.05400
H1972       H  0.63867257  0.23527230  0.68496331     0.08600
H1973       H  0.96576543  0.27581013  0.64978313     0.08600
H1974       H  0.83266678  0.22622927  0.58514542     0.08600
H1975       H  0.80794227  0.25462790  0.53580261     0.08600
H1976       H  0.78806340  0.20832873  0.54296436     0.05400
C1977       C  0.93725224  0.64468272  0.86832444    -0.20400
C1978       C  0.91248635  0.64983933  0.90770261    -0.07000
C1979       C  0.88660949  0.61725362  0.92024227     0.13900
C1980       C  0.87527660  0.58881323  0.88584503    -0.20500
C1981       C  0.89279925  0.58857310  0.84175623    -0.07000
C1982       C  0.92703222  0.61506447  0.83451706     0.13900
C1983       C  0.95063573  0.61423514  0.78993620    -0.23800
H1984       H  0.96154305  0.66603821  0.86094426     0.15100
H1985       H  0.85284298  0.56583082  0.89414392     0.15200
C1986       C  0.87268723  0.60793851  0.96941549    -0.23800
H1987       H  0.97522184  0.63805457  0.78950220     0.05400
H1988       H  0.92639770  0.61710859  0.75683480     0.08600
H1989       H  0.96861726  0.58687146  0.78899699     0.08600
H1990       H  0.83629425  0.60414367  0.96644514     0.08600
H1991       H  0.88297275  0.62871885  0.99810008     0.08600
H1992       H  0.88780385  0.58025387  0.98214816     0.05400
C1993       C  0.97040172  0.92053388  0.85359789    -0.20400
C1994       C  0.94246331  0.93055073  0.88814746    -0.07000
C1995       C  0.89851382  0.91620440  0.88112762     0.13900
C1996       C  0.88752892  0.88721881  0.84709355    -0.20500
C1997       C  0.91917346  0.86945436  0.82160439    -0.07000
C1998       C  0.95708324  0.89323586  0.81733813     0.13900
C1999       C  0.97886113  0.89676139  0.77165606    -0.23800
H2000       H  0.67417352  0.93259575  0.85680050     0.15100
H2001       H  0.85346277  0.87940056  0.84115847     0.15200
C2002       C  0.86264938  0.92988885  0.90963001    -0.23800
H2003       H  0.65484231  0.92629092  0.76332415     0.05400
H2004       H  0.96013346  0.88194710  0.74046353     0.08600
H2005       H  0.68465490  0.88359220  0.78223139     0.08600
H2006       H  0.85852292  0.96132137  0.90452716     0.08600
H2007       H  0.87099537  0.92256103  0.94869697     0.08600
H2008       H  0.83008676  0.91610875  0.89773236     0.05400
C2009       C  0.89610538  0.75764005  0.81924157    -0.20400
C2010       C  0.91035447  0.79371229  0.83834812    -0.07000
C2011       C  0.92254789  0.79491387  0.88975976     0.13900
C2012       C  0.91793161  0.76151591  0.91798544    -0.20500
C2013       C  0.90756454  0.72495707  0.89794629    -0.07000
C2014       C  0.89140657  0.72452926  0.84732705     0.13900
C2015       C  0.86492886  0.69291628  0.81966806    -0.23800
H2016       H  0.88509251  0.75557970  0.78117174     0.15100
H2017       H  0.92660678  0.76344120  0.95665630     0.15200
C2018       C  0.94208159  0.82935749  0.91727722    -0.23800
H2019       H  0.83271622  0.70463941  0.80348349     0.05400
H2020       H  0.85625142  0.66770412  0.84057900     0.08600
H2021       H  0.88282600  0.68313401  0.78961968     0.08600
H2022       H  0.91553351  0.84890889  0.92436741     0.08600
H2023       H  0.96793793  0.84380712  0.89874857     0.08600
H2024       H  0.95897974  0.82100659  0.95355639     0.05400
C2025       C  0.80983545  0.63156978  0.57819017    -0.20400
C2026       C  0.77361863  0.65535367  0.58478118    -0.07000
C2027       C  0.74809416  0.64393422  0.62309943     0.13900
C2028       C  0.76190915  0.61292253  0.65407216    -0.20500
C2029       C  0.79966192  0.59156441  0.64840916    -0.07000
C2030       C  0.82305522  0.60055443  0.60878189     0.13900
C2031       C  0.86209730  0.57753413  0.59752803    -0.23800
H2032       H  0.82865065  0.63631811  0.54840122     0.15100
H2033       H  0.74292437  0.60574409  0.68361495     0.15200
C2034       C  0.70645656  0.66364021  0.63389750    -0.23800
H2035       H  0.87499656  0.58749747  0.56399897     0.05400
H2036       H  0.85223939  0.54692052  0.59244701     0.08600
H2037       H  0.88992969  0.58056803  0.62703175     0.08600
H2038       H  0.71160644  0.67527462  0.67123847     0.08600
H2039       H  0.69605728  0.68747306  0.60867702     0.08600
H2040       H  0.67860928  0.64263563  0.63222580     0.05400
C2041       C  0.70431750  0.71480771  0.98151305    -0.20400
C2042       C  0.71719425  0.68771796  0.51909208    -0.07000
C2043       C  0.68631751  0.65587832  0.51739432     0.13900
C2044       C  0.97752487  0.66374580  0.49470824    -0.20500
C2045       C  0.96422534  0.68991574  0.96104022    -0.07000
C2046       C  0.00034406  0.71408774  0.95083499     0.13900
C2047       C  0.00580194  0.73394697  0.90288773    -0.23800
H2048       H  0.73063114  0.73223509  0.97108777     0.15100
H2049       H  0.95455122  0.64063346  0.49830653     0.15200
C2050       C  0.69623017  0.61439332  0.53146514    -0.23800
H2051       H  0.70166005  0.72380294  0.88742531     0.05400
H2052       H  0.00779890  0.76546348  0.90786617     0.08600
H2053       H  0.98097224  0.72669193  0.87223118     0.08600
H2054       H  0.67951073  0.60561368  0.56322815     0.08600
H2055       H  0.73131819  0.60692557  0.53717306     0.08600
H2056       H  0.01716143  0.59907720  0.50344046     0.05400
C2057       C  0.84326365  0.71158886  0.53986960    -0.20400
C2058       C  0.80166530  0.69736956  0.51820394    -0.07000
C2059       C  0.79832944  0.68101584  0.96844023     0.13900
C2060       C  0.83484688  0.68692266  0.94338451    -0.20500
C2061       C  0.87779221  0.69459903  0.96661424    -0.07000
C2062       C  0.88213842  0.71076839  0.51664017     0.13900
C2063       C  0.92448749  0.72289527  0.54719159    -0.23800
H2064       H  0.84628422  0.72061328  0.57729847     0.15100
H2065       H  0.83057096  0.67975418  0.90568506     0.15200
C2066       C  0.76368714  0.65333281  0.94459007    -0.23800
H2067       H  0.91774386  0.73836607  0.58019329     0.05400
H2068       H  0.94482010  0.74279081  0.52766798     0.08600
H2069       H  0.94352967  0.69737876  0.56065023     0.08600
H2070       H  0.73445102  0.66809647  0.92633188     0.08600
H2071       H  0.75472523  0.63162448  0.97110030     0.08600
H2072       H  0.77645631  0.63665962  0.91553929     0.05400
C2073       C  0.71696179  0.92436096  0.63238293    -0.20400
C2074       C  0.68573423  0.91765719  0.59232493    -0.07000
C2075       C  0.66258882  0.88250368  0.58934834     0.13900
C2076       C  0.67477882  0.85340036  0.62366365    -0.20500
C2077       C  0.71042887  0.85741518  0.66163861    -0.07000
C2078       C  0.72723228  0.89623974  0.66881244     0.13900
C2079       C  0.75305652  0.91127014  0.71470765    -0.23800
H2080       H  0.73208245  0.95267741  0.63642151     0.15100
H2081       H  0.99494166  0.82682206  0.61419083     0.15200
C2082       C  0.96462264  0.87417185  0.54330013    -0.23800
H2083       H  0.74446825  0.94158602  0.72057892     0.05400
H2084       H  0.78909417  0.91068929  0.71249790     0.08600
H2085       H  0.74416187  0.89602402  0.74698661     0.08600
H2086       H  0.98059485  0.87823840  0.50967110     0.08600
H2087       H  0.93585830  0.89345235  0.54190813     0.08600
H2088       H  0.95204114  0.84413809  0.54432420     0.05400
C2089       C  0.78282950  0.83272751  0.76842621    -0.20400
C2090       C  0.77676373  0.83076792  0.71778500    -0.07000
C2091       C  0.81569987  0.84067685  0.69539774     0.13900
C2092       C  0.85670156  0.84482576  0.72476571    -0.20500
C2093       C  0.86266724  0.82960857  0.77225402    -0.07000
C2094       C  0.82318403  0.82441260  0.79528232     0.13900
C2095       C  0.82047564  0.81187529  0.84789531    -0.23800
H2096       H  0.75646798  0.84054531  0.78822542     0.15100
H2097       H  0.88528632  0.85526977  0.70869770     0.15200
C2098       C  0.81644938  0.84717174  0.64165731    -0.23800
H2099       H  0.82334995  0.78033212  0.85157271     0.05400
H2100       H  0.78826832  0.81915542  0.85992017     0.08600
H2101       H  0.84496058  0.82558312  0.87492389     0.08600
H2102       H  0.84645427  0.86358998  0.63417522     0.08600
H2103       H  0.78806984  0.86399326  0.62501638     0.08600
H2104       H  0.81816846  0.81924376  0.62360333     0.05400
C2105       C  0.98527535  0.79555151  0.69860675    -0.20400
C2106       C  0.69269085  0.80358813  0.72156463    -0.07000
C2107       C  0.69378515  0.80193234  0.77338557     0.13900
C2108       C  0.65639335  0.81246196  0.79442064    -0.20500
C2109       C  0.94792296  0.81453609  0.76889916    -0.07000
C2110       C  0.94575340  0.79832487  0.72085391     0.13900
C2111       C  0.90584119  0.77993524  0.69181854    -0.23800
H2112       H  0.98327603  0.78341780  0.66281999     0.15100
H2113       H  0.66006750  0.81637083  0.83326082     0.15200
C2114       C  0.72093257  0.77359336  0.80576012    -0.23800
H2115       H  0.91386467  0.75002419  0.68314207     0.05400
H2116       H  0.89782850  0.79588318  0.65702302     0.08600
H2117       H  0.87586476  0.77754016  0.70989083     0.08600
H2118       H  0.72370258  0.78232329  0.84433637     0.08600
H2119       H  0.75485560  0.77050193  0.79824703     0.08600
H2120       H  0.70433337  0.74500446  0.80273952     0.05400
C2121       C  0.73853219  0.79409219  0.60184125    -0.20400
C2122       C  0.74112081  0.78712549  0.65275615    -0.07000
C2123       C  0.76211520  0.75184531  0.66833548     0.13900
C2124       C  0.77556070  0.72609235  0.63473640    -0.20500
C2125       C  0.76325050  0.72936925  0.58440798    -0.07000
C2126       C  0.75263858  0.76774017  0.56879679     0.13900
C2127       C  0.76632702  0.78634948  0.52328723    -0.23800
H2128       H  0.73232948  0.82248151  0.58732036     0.15100
H2129       H  0.79523187  0.70209494  0.64894232     0.15200
C2130       C  0.77077351  0.73902574  0.72005110    -0.23800
H2131       H  0.78703291  0.81224216  0.53314530     0.05400
H2132       H  0.73668293  0.79593364  0.49905997     0.08600
H2133       H  0.78743307  0.76833631  0.50362174     0.08600
H2134       H  0.73848899  0.73490934  0.73350412     0.08600
H2135       H  0.79390720  0.75914635  0.74071242     0.08600
H2136       H  0.78679930  0.71060163  0.72466961     0.05400
loop_ 
_geom_bond_atom_site_label_1 
_geom_bond_atom_site_label_2 
_geom_bond_distance 
_geom_bond_site_symmetry_2 
_ccdc_geom_bond_type 
C1          C297   1.604       .  S
C1          C310   1.576       .  S
C1          C326   1.627       .  S
C1          C342   1.601       .  S
C2          C246   1.586       .  S
C2          C262   1.584       .  S
C2          C278   1.571       .  S
C2          C345   1.602       .  S
C3          C217   1.601       .  S
C3          C230   1.577       .  S
C3          C313   1.555       .  S
C3          C329   1.594       .  S
C4          C198   1.575       .  S
C4          C233   1.570       .  S
C4          C265   1.570       .  S
C4          C281   1.570       .  S
C5          C137   1.579       .  S
C5          C150   1.619       .  S
C5          C169   1.565       .  S
C5          C185   1.607       .  S
C6           C86   1.594       .  S
C6          C102   1.615       .  S
C6          C118   1.594       .  S
C6          C182   1.564       .  S
C7           C54   1.599       .  S
C7           C70   1.585       .  S
C7          C153   1.586       .  S
C7          C166   1.580       .  S
C8           C38   1.579       .  S
C8           C73   1.593       .  S
C8          C105   1.595       .  S
C8          C121   1.585       .  S
O9          Ni17   1.919       .  S
O9           C19   1.279       .  A
O10         Ni17   1.925       .  S
O10          C20   1.281       .  A
O11         Ni17   1.917       .  S
O11          C21   1.282       .  A
O12         Ni17   1.930       .  S
O12          C22   1.284       .  A
O13         Ni18   1.913       .  S
O13          C22   1.280       .  A
O14         Ni18   1.916       .  S
O14          C21   1.280       .  A
O15         Ni18   1.919       .  S
O15          C20   1.281       .  A
O16         Ni18   1.912       .  S
O16          C19   1.283       .  A
Ni17        Ni18   2.383       .  S
C19         C201   1.484       .  S
C20          C89   1.477       .  S
C21         C249   1.496       .  S
C22          C41   1.496       .  S
O23         Ni31   1.928   1_565  S
O23        C1457   1.283   1_455  A
O24        Ni387   1.918   1_554  S
O24          C34   1.279       .  A
O25        Ni387   1.932   1_564  S
O25          C35   1.285       .  A
O26         Ni31   1.939       .  S
O26        C1460   1.286   1_455  A
O27        Ni388   1.905       .  S
O27          C36   1.277       .  A
O28         Ni32   1.907   1_565  S
O28         C747   1.277       .  A
O29         Ni32   1.915       .  S
O29         C746   1.283       .  A
O30        Ni388   1.916   1_565  S
O30          C33   1.281       .  A
Ni31        O380   1.918       .  S
Ni31        O381   1.937   1_545  S
Ni31      Ni1812   2.386   1_455  S
Ni32        O383   1.905   1_554  S
Ni32        O386   1.911   1_544  S
Ni32      Ni1099   2.386   1_554  S
C33         O735   1.283       .  A
C33         C214   1.499       .  S
C34        O1453   1.283   1_455  A
C34         C134   1.475       .  S
C35        O1452   1.277   1_455  A
C35         C294   1.476       .  S
C36         O738   1.285       .  A
C36          C57   1.479       .  S
C37          C38   1.418       .  A
C37          C42   1.401       .  A
C37          H44   1.079       .  S
C38          C39   1.433       .  A
C39          C46   1.511       .  S
C39          C40   1.411       .  A
C40          C41   1.405       .  A
C40          H45   1.083       .  S
C41          C42   1.416       .  A
C42          C43   1.511       .  S
C43          H47   1.111       .  S
C43          H48   1.109       .  S
C43          H49   1.111       .  S
C46          H50   1.103       .  S
C46          H51   1.109       .  S
C46          H52   1.111       .  S
C53          C54   1.427       .  A
C53          C58   1.400       .  A
C53          H60   1.077       .  S
C54          C55   1.447       .  A
C55          C62   1.514       .  S
C55          C56   1.411       .  A
C56          C57   1.396       .  A
C56          H61   1.085       .  S
C57          C58   1.400       .  A
C58         C771   1.508       .  S
C59        C1482   1.508   1_455  S
C59          H63   1.111       .  S
C59          H65   1.110       .  S
C59        H1488   1.110       .  S
C62          H66   1.102       .  S
C62          H67   1.101       .  S
C62          H68   1.111       .  S
H64         C771   1.110       .  S
C69          C70   1.416       .  A
C69          C74   1.406       .  A
C69          H76   1.078       .  S
C70          C71   1.427       .  A
C71          C78   1.510       .  S
C71          C72   1.413       .  A
C72          C73   1.420       .  A
C72          H77   1.075       .  S
C73          C74   1.433       .  A
C74          C75   1.514       .  S
C75          H79   1.104       .  S
C75          H80   1.104       .  S
C75          H81   1.111       .  S
C78          H82   1.107       .  S
C78          H83   1.101       .  S
C78          H84   1.111       .  S
C85          C86   1.425       .  A
C85          C90   1.408       .  A
C85          H92   1.084       .  S
C86          C87   1.461       .  A
C87          C94   1.522       .  S
C87          C88   1.407       .  A
C88          C89   1.386       .  A
C88          H93   1.086       .  S
C89          C90   1.402       .  A
C90          C91   1.506       .  S
C91          H95   1.111       .  S
C91          H96   1.110       .  S
C91          H97   1.111       .  S
C94          H98   1.107       .  S
C94          H99   1.111       .  S
C94         H100   1.101       .  S
C101        C106   1.421       .  A
C101        C814   1.420       .  A
C101        H820   1.077       .  S
C102       C1525   1.420       .  A
C102        C459   1.445       .  A
C103        C110   1.513       .  S
C103        C458   1.444       .  A
C103       C1528   1.405   1_455  A
C104        C105   1.409       .  A
C104        C815   1.405       .  A
C104        H109   1.074       .  S
C105        C462   1.436       .  A
C106        C107   1.512       .  S
C106        C461   1.435   1_554  A
C107        H111   1.110       .  S
C107        H112   1.104       .  S
C107        H113   1.107   1_554  S
H108       C1525   1.077       .  S
C110        H114   1.098       .  S
C110        H115   1.111       .  S
C110        H116   1.100       .  S
C117        C122   1.403       .  A
C117        C474   1.412       .  A
C117        H124   1.075       .  S
C118        C119   1.438       .  A
C118        C473   1.413   1_554  A
C119        C126   1.511       .  S
C119        C120   1.415       .  A
C120        C477   1.413   1_554  A
C120        H125   1.077       .  S
C121        C122   1.434       .  A
C121        C476   1.414       .  A
C122        C123   1.517       .  S
C123        H127   1.107       .  S
C123        H128   1.103       .  S
C123        H129   1.111       .  S
C126        H130   1.111       .  S
C126        H131   1.099       .  S
C126        H132   1.106       .  S
C133        C134   1.386       .  A
C133        C138   1.397       .  A
C133       H1564   1.086   1_455  S
C134        C135   1.407       .  A
C135        C142   1.505       .  S
C135        C136   1.412       .  A
C136        C137   1.423       .  A
C136        H141   1.080       .  S
C137        C138   1.445       .  A
C138       C1563   1.508   1_455  S
C139        C850   1.509       .  S
C139        H143   1.103       .  S
C139        H145   1.111       .  S
C139        H856   1.098       .  S
H140        C845   1.086       .  S
C142        H146   1.110       .  S
C142        H147   1.110       .  S
C142        H148   1.111       .  S
H144       C1563   1.098       .  S
C149        C150   1.408       .  A
C149        C154   1.400       .  A
C149        H156   1.068       .  S
C150        C151   1.447       .  A
C151        C158   1.515       .  S
C151        C152   1.421       .  A
C152        C153   1.414       .  A
C152        H157   1.084       .  S
C153        C154   1.434       .  A
C154        C155   1.510       .  S
C155        H159   1.110       .  S
C155        H160   1.109       .  S
C155        H161   1.089       .  S
C158        H162   1.099       .  S
C158        H163   1.109       .  S
C158        H164   1.110       .  S
C165        C166   1.410       .  A
C165        C170   1.390       .  A
C165        H172   1.076       .  S
C166        C879   1.442       .  A
C167        C174   1.513       .  S
C167        C168   1.418   1_655  A
C167       C1590   1.440       .  A
C168        C169   1.415       .  A
C168        H173   1.084       .  S
C169       C1594   1.429   1_455  A
C170        C171   1.516       .  S
C170        C881   1.430       .  A
C171        H175   1.112       .  S
C171        H176   1.106       .  S
C171        H177   1.106       .  S
C174        H178   1.111   1_655  S
C174        H179   1.105       .  S
C174        H180   1.103       .  S
C181        C182   1.413       .  A
C181        C186   1.405       .  A
C181        H188   1.085       .  S
C182        C183   1.428       .  A
C183        C190   1.517       .  S
C183        C184   1.407       .  A
C184        C185   1.420       .  A
C184        H189   1.075       .  S
C185        C186   1.443       .  A
C186        C187   1.512   1_455  S
C187        H192   1.084       .  S
C187       H1615   1.111       .  S
C187       H1617   1.113       .  S
C190        H194   1.100       .  S
C190        H195   1.096       .  S
C190        H196   1.111       .  S
H191        C899   1.110       .  S
H193        C899   1.112       .  S
C197        C198   1.417       .  A
C197        C202   1.410       .  A
C197        H204   1.078       .  S
C198        C199   1.438       .  A
C199        C206   1.509       .  S
C199        C200   1.397       .  A
C200        C201   1.395       .  A
C200        H205   1.086       .  S
C201        C202   1.414       .  A
C202        C203   1.506       .  S
C203        H207   1.111       .  S
C203        H208   1.110       .  S
C203        H209   1.110       .  S
C206        H210   1.107       .  S
C206        H211   1.095       .  S
C206        H212   1.111       .  S
C213        C214   1.408       .  A
C213        C218   1.413       .  A
C213        H932   1.084       .  S
C214        C215   1.415       .  A
C215        C222   1.511       .  S
C215        C216   1.404       .  A
C216        C217   1.420       .  A
C216        H221   1.067       .  S
C217        C218   1.428       .  A
C218        C219   1.504       .  S
C219        H224   1.107       .  S
C219        H935   1.111       .  S
C219        H937   1.104       .  S
H220       C1637   1.084   1_455  S
C222        H226   1.111       .  S
C222        H227   1.110       .  S
C222        H228   1.111       .  S
H223       C1643   1.111       .  S
H225       C1643   1.104   1_455  S
C229        C230   1.413       .  A
C229        C234   1.398       .  A
C229        H236   1.070       .  S
C230        C231   1.429       .  A
C231        C238   1.506       .  S
C231        C232   1.409       .  A
C232        C233   1.414       .  A
C232        H237   1.075       .  S
C233        C234   1.430       .  A
C234        C235   1.517       .  S
C235        H239   1.110       .  S
C235        H240   1.094       .  S
C235        H241   1.111       .  S
C238        H242   1.102       .  S
C238        H243   1.104       .  S
C238        H244   1.110       .  S
C245        C246   1.421       .  A
C245        C250   1.399       .  A
C245        H252   1.071       .  S
C246        C247   1.440       .  A
C247        C254   1.516       .  S
C247        C248   1.410       .  A
C248        C249   1.407       .  A
C248        H253   1.084       .  S
C249        C250   1.411       .  A
C250        C251   1.512       .  S
C251        H255   1.106       .  S
C251        H256   1.110       .  S
C251        H257   1.110       .  S
C254        H258   1.110       .  S
C254        H259   1.104       .  S
C254        H260   1.109       .  S
C261        C618   1.408       .  A
C261       C1690   1.401       .  A
C261        H268   1.062       .  S
C262        C263   1.440       .  A
C262        C617   1.407   1_554  A
C263        C270   1.517       .  S
C263       C1688   1.406   1_454  A
C264        C975   1.403   1_556  A
C264        C621   1.410       .  A
C264        H269   1.068   1_556  S
C265        C266   1.428       .  A
C265        C620   1.410       .  A
C266        C267   1.516       .  S
C266        C973   1.399       .  A
C267        H272   1.109       .  S
C267        H273   1.097       .  S
C267        H983   1.110       .  S
C270        H274   1.108       .  S
C270        H275   1.098       .  S
C270       H1700   1.112       .  S
H271       C1691   1.110       .  S
H276        C982   1.112       .  S
C277        C278   1.418       .  A
C277        C282   1.411       .  A
C277        H284   1.083       .  S
C278        C635   1.427   1_554  A
C279        C286   1.517       .  S
C279        C280   1.393       .  A
C279        C634   1.429       .  A
C280        C281   1.408       .  A
C280        H285   1.071       .  S
C281        C638   1.434       .  A
C282        C283   1.513       .  S
C282        C637   1.434   1_554  A
C283        H287   1.112       .  S
C283        H288   1.096       .  S
C283        H289   1.111       .  S
C286        H290   1.098       .  S
C286        H291   1.102       .  S
C286        H292   1.112       .  S
C293        C294   1.389       .  A
C293        C298   1.409       .  A
C293        H300   1.084       .  S
C294        C295   1.400   1_455  A
C295       C1726   1.509       .  S
C295        C296   1.404   1_655  A
C296        C297   1.427       .  A
C296       H1725   1.071   1_455  S
C297        C298   1.451       .  A
C298        C299   1.511       .  S
C299        H303   1.112       .  S
C299        H304   1.105       .  S
C299        H305   1.096       .  S
H301       C1008   1.071       .  S
C302       C1007   1.509       .  S
C302        H306   1.110       .  S
C302        H307   1.110       .  S
C302        H308   1.111       .  S
C309        C310   1.396       .  A
C309        C314   1.391       .  A
C309        H316   1.068       .  S
C310        C311   1.442       .  A
C311        C318   1.507       .  S
C311        C312   1.413       .  A
C312        C313   1.404       .  A
C312        H317   1.083       .  S
C313        C314   1.438       .  A
C314        C315   1.528       .  S
C315        H319   1.107       .  S
C315        H320   1.110       .  S
C315        H321   1.100       .  S
C318        H322   1.111       .  S
C318        H323   1.104       .  S
C318        H324   1.105       .  S
C325        C330   1.423       .  A
C325       C1038   1.410       .  A
C325        H332   1.080       .  S
C326        C327   1.440       .  A
C326       C1749   1.411   1_455  A
C327        C334   1.515       .  S
C327        C328   1.401   1_455  A
C328       C1753   1.404       .  A
C328        H333   1.080       .  S
C329        C330   1.450       .  A
C329       C1040   1.404       .  A
C330        C331   1.514       .  S
C331        H335   1.111       .  S
C331        H336   1.110       .  S
C331        H337   1.095       .  S
C334        H338   1.110       .  S
C334        H339   1.087       .  S
C334        H340   1.111       .  S
C341        C342   1.423       .  A
C341        C346   1.413       .  A
C341        H348   1.075       .  S
C342        C343   1.431       .  A
C343        C350   1.490       .  S
C343        C344   1.403       .  A
C344        C345   1.404       .  A
C344        H349   1.079       .  S
C345        C346   1.431       .  A
C346        C347   1.514       .  S
C347        H351   1.111       .  S
C347        H352   1.111   1_554  S
C347        H353   1.101       .  S
C350        H354   1.101       .  S
C350        H355   1.103       .  S
C350        H356   1.111       .  S
C357        C653   1.599       .  S
C357        C666   1.582       .  S
C357        C682   1.625       .  S
C357        C698   1.605       .  S
C358        C602   1.584       .  S
C358        C618   1.585       .  S
C358        C634   1.572       .  S
C358        C701   1.602       .  S
C359        C573   1.600       .  S
C359        C586   1.578       .  S
C359        C669   1.557       .  S
C359        C685   1.592       .  S
C360        C554   1.578       .  S
C360        C589   1.570       .  S
C360        C621   1.571       .  S
C360        C637   1.571       .  S
C361        C493   1.580       .  S
C361        C506   1.619       .  S
C361        C525   1.566       .  S
C361        C541   1.608       .  S
C362        C442   1.594       .  S
C362        C458   1.613       .  S
C362        C474   1.588       .  S
C362        C538   1.563       .  S
C363        C410   1.600       .  S
C363        C426   1.582       .  S
C363        C509   1.586       .  S
C363        C522   1.576       .  S
C364        C394   1.580       .  S
C364        C429   1.592       .  S
C364        C461   1.597       .  S
C364        C477   1.587       .  S
O365       Ni373   1.923       .  S
O365        C375   1.280       .  A
O366       Ni373   1.926       .  S
O366        C376   1.282       .  A
O367       Ni373   1.914       .  S
O367        C377   1.282       .  A
O368       Ni373   1.929       .  S
O368        C378   1.284       .  A
O369       Ni374   1.913       .  S
O369        C378   1.280       .  A
O370       Ni374   1.917       .  S
O370        C377   1.280       .  A
O371       Ni374   1.920       .  S
O371        C376   1.281       .  A
O372       Ni374   1.912       .  S
O372        C375   1.283       .  A
Ni373      Ni374   2.382       .  S
C375        C557   1.485       .  S
C376        C445   1.480       .  S
C377        C605   1.496       .  S
C378        C397   1.497       .  S
O379       Ni387   1.926   1_665  S
O379       C1813   1.282       .  A
O380        C390   1.279       .  A
O381        C391   1.286       .  A
O382       Ni387   1.935       .  S
O382       C1816   1.285   1_455  A
O383        C392   1.277       .  A
O384       Ni388   1.906   1_565  S
O384       C1103   1.277       .  A
O385       Ni388   1.919       .  S
O385       C1102   1.284       .  A
O386        C389   1.281       .  A
Ni387     Ni1456   2.387   1_456  S
Ni388      Ni743   2.387       .  S
C389       O1091   1.283       .  A
C389        C570   1.499       .  S
C390       O1809   1.284   1_455  A
C390        C490   1.479       .  S
C391       O1808   1.276   1_455  A
C391        C650   1.478       .  S
C392       O1094   1.286       .  A
C392        C413   1.482       .  S
C393        C394   1.417       .  A
C393        C398   1.401       .  A
C393        H400   1.079       .  S
C394        C395   1.433       .  A
C395        C402   1.510       .  S
C395        C396   1.413       .  A
C396        C397   1.406       .  A
C396        H401   1.083       .  S
C397        C398   1.417       .  A
C398        C399   1.511       .  S
C399        H403   1.111       .  S
C399        H404   1.109       .  S
C399        H405   1.111       .  S
C402        H406   1.103       .  S
C402        H407   1.109       .  S
C402        H408   1.111       .  S
C409        C410   1.428       .  A
C409        C414   1.402       .  A
C409        H416   1.077       .  S
C410        C411   1.447       .  A
C411        C418   1.514       .  S
C411        C412   1.412       .  A
C412        C413   1.396       .  A
C412        H417   1.085       .  S
C413        C414   1.400       .  A
C414       C1127   1.508       .  S
C415       C1838   1.508   1_455  S
C415        H419   1.111       .  S
C415       H1844   1.110       .  S
C415        H421   1.110       .  S
C418        H422   1.102       .  S
C418        H423   1.100       .  S
C418        H424   1.111       .  S
H420       C1127   1.110       .  S
C425        C426   1.415       .  A
C425        C430   1.406       .  A
C425        H432   1.078       .  S
C426        C427   1.428       .  A
C427        C434   1.511       .  S
C427        C428   1.412       .  A
C428        C429   1.419       .  A
C428        H433   1.075       .  S
C429        C430   1.433       .  A
C430        C431   1.514       .  S
C431        H435   1.104       .  S
C431        H436   1.104   1_556  S
C431        H437   1.111       .  S
C434        H438   1.106       .  S
C434        H439   1.102       .  S
C434        H440   1.110       .  S
C441        C442   1.426       .  A
C441        C446   1.408       .  A
C441        H448   1.083       .  S
C442        C443   1.458       .  A
C443        C450   1.521       .  S
C443        C444   1.407       .  A
C444        C445   1.388       .  A
C444        H449   1.086       .  S
C445        C446   1.403       .  A
C446        C447   1.506       .  S
C447        H451   1.111       .  S
C447        H452   1.110       .  S
C447        H453   1.111       .  S
C450        H454   1.110       .  S
C450        H455   1.112       .  S
C450        H456   1.097       .  S
C457       C1170   1.419       .  A
C457        C462   1.420       .  A
C457       H1176   1.077       .  S
C458       C1881   1.420       .  A
C459        C466   1.514   1_554  S
C459       C1884   1.406   1_454  A
C460       C1171   1.405       .  A
C460        C461   1.409       .  A
C460        H465   1.074       .  S
C462        C463   1.513       .  S
C463        H467   1.110       .  S
C463        H468   1.103       .  S
C463        H469   1.107       .  S
H464       C1881   1.077       .  S
C466        H470   1.098       .  S
C466        H471   1.111       .  S
C466        H472   1.100   1_556  S
C473        C478   1.404       .  A
C473        H480   1.075       .  S
C474        C475   1.436       .  A
C475        C482   1.512       .  S
C475        C476   1.414       .  A
C476        H481   1.078       .  S
C477        C478   1.434       .  A
C478        C479   1.518       .  S
C479        H483   1.107       .  S
C479        H484   1.103       .  S
C479        H485   1.111       .  S
C482        H486   1.111       .  S
C482        H487   1.099       .  S
C482        H488   1.106       .  S
C489        C490   1.388       .  A
C489        C494   1.400       .  A
C489       H1920   1.085   1_455  S
C490        C491   1.408       .  A
C491        C498   1.505       .  S
C491        C492   1.411       .  A
C492        C493   1.422       .  A
C492        H497   1.079       .  S
C493        C494   1.445       .  A
C494       C1919   1.508   1_455  S
C495       C1206   1.509       .  S
C495        H499   1.103       .  S
C495       H1212   1.097       .  S
C495        H501   1.111       .  S
H496       C1201   1.085       .  S
C498        H502   1.110       .  S
C498        H503   1.109       .  S
C498        H504   1.111       .  S
H500       C1919   1.098       .  S
C505        C506   1.408       .  A
C505        C510   1.401       .  A
C505        H512   1.068       .  S
C506        C507   1.446       .  A
C507        C514   1.515       .  S
C507        C508   1.420       .  A
C508        C509   1.414       .  A
C508        H513   1.084       .  S
C509        C510   1.434       .  A
C510        C511   1.510       .  S
C511        H515   1.110       .  S
C511        H516   1.109       .  S
C511        H517   1.088       .  S
C514        H518   1.099       .  S
C514        H519   1.109       .  S
C514        H520   1.110       .  S
C521        C522   1.411       .  A
C521        C526   1.387       .  A
C521        H528   1.076       .  S
C522       C1235   1.443       .  A
C523        C530   1.513       .  S
C523       C1946   1.442       .  A
C523        C524   1.418   1_655  A
C524        C525   1.414       .  A
C524        H529   1.084       .  S
C525       C1950   1.430   1_455  A
C526        C527   1.516       .  S
C526       C1237   1.426       .  A
C527        H531   1.112       .  S
C527        H532   1.106       .  S
C527        H533   1.107       .  S
C530        H534   1.111   1_655  S
C530        H535   1.104       .  S
C530        H536   1.103       .  S
C537        C538   1.413       .  A
C537        C542   1.407       .  A
C537        H544   1.085       .  S
C538        C539   1.429       .  A
C539        C546   1.519       .  S
C539        C540   1.404       .  A
C540        C541   1.419       .  A
C540        H545   1.075       .  S
C541        C542   1.445       .  A
C542        C543   1.511   1_455  S
C543       H1971   1.110       .  S
C543        H548   1.086       .  S
C543       H1973   1.112       .  S
C546        H550   1.102       .  S
C546        H551   1.094       .  S
C546        H552   1.111       .  S
H547       C1255   1.110       .  S
H549       C1255   1.113       .  S
C553        C554   1.419       .  A
C553        C558   1.412       .  A
C553        H560   1.077       .  S
C554        C555   1.440       .  A
C555        C562   1.510       .  S
C555        C556   1.396       .  A
C556        C557   1.393       .  A
C556        H561   1.086       .  S
C557        C558   1.413       .  A
C558        C559   1.506       .  S
C559        H563   1.111       .  S
C559        H564   1.110       .  S
C559        H565   1.110       .  S
C562        H566   1.108       .  S
C562        H567   1.094       .  S
C562        H568   1.111       .  S
C569        C570   1.409       .  A
C569        C574   1.415       .  A
C569       H1288   1.084       .  S
C570        C571   1.415       .  A
C571        C578   1.512       .  S
C571        C572   1.401       .  A
C572        C573   1.418       .  A
C572        H577   1.065       .  S
C573        C574   1.429       .  A
C574        C575   1.504       .  S
C575       H1291   1.111       .  S
C575        H580   1.107       .  S
C575       H1293   1.104       .  S
H576       C1993   1.084   1_455  S
C578        H582   1.110       .  S
C578        H583   1.110       .  S
C578        H584   1.111       .  S
H579       C1999   1.111       .  S
H581       C1999   1.103   1_455  S
C585        C586   1.413       .  A
C585        C590   1.399       .  A
C585        H592   1.072       .  S
C586        C587   1.430       .  A
C587        C594   1.507       .  S
C587        C588   1.410       .  A
C588        C589   1.414       .  A
C588        H593   1.077       .  S
C589        C590   1.430       .  A
C590        C591   1.516       .  S
C591        H595   1.109       .  S
C591        H596   1.093       .  S
C591        H597   1.111       .  S
C594        H598   1.102       .  S
C594        H599   1.104       .  S
C594        H600   1.111       .  S
C601        C602   1.421       .  A
C601        C606   1.397       .  A
C601        H608   1.071       .  S
C602        C603   1.440       .  A
C603        C610   1.516       .  S
C603        C604   1.410       .  A
C604        C605   1.407       .  A
C604        H609   1.084       .  S
C605        C606   1.412       .  A
C606        C607   1.512       .  S
C607        H611   1.105       .  S
C607        H612   1.111       .  S
C607        H613   1.110       .  S
C610        H614   1.110       .  S
C610        H615   1.104       .  S
C610        H616   1.109       .  S
C617       C2046   1.399       .  A
C617        H624   1.062       .  S
C618        C619   1.443       .  A
C619        C626   1.519       .  S
C619       C2044   1.406   1_455  A
C620       C1331   1.403       .  A
C620        H625   1.071       .  S
C621        C622   1.429       .  A
C622        C623   1.516       .  S
C622       C1329   1.401       .  A
C623       H1339   1.111       .  S
C623        H628   1.110       .  S
C623        H629   1.097       .  S
C626        H630   1.108       .  S
C626        H631   1.097       .  S
C626       H2056   1.112       .  S
H627       C2047   1.111       .  S
H632       C1338   1.112       .  S
C633        C634   1.421       .  A
C633        C638   1.415       .  A
C633        H640   1.082       .  S
C635        C642   1.517       .  S
C635        C636   1.397       .  A
C636        C637   1.410       .  A
C636        H641   1.071       .  S
C638        C639   1.514       .  S
C639        H643   1.111       .  S
C639        H644   1.103       .  S
C639        H645   1.106       .  S
C642        H646   1.100       .  S
C642        H647   1.104       .  S
C642        H648   1.111       .  S
C649        C650   1.392       .  A
C649        C654   1.407       .  A
C649        H656   1.084       .  S
C650        C651   1.404   1_455  A
C651       C2082   1.508       .  S
C651        C652   1.406   1_655  A
C652        C653   1.424       .  A
C652       H2081   1.072   1_455  S
C653        C654   1.444       .  A
C654        C655   1.506       .  S
C655        H659   1.112       .  S
C655        H660   1.110       .  S
C655        H661   1.092       .  S
H657       C1364   1.071       .  S
C658       C1363   1.509       .  S
C658        H662   1.110       .  S
C658        H663   1.110       .  S
C658        H664   1.111       .  S
C665        C666   1.395       .  A
C665        C670   1.391       .  A
C665        H672   1.067       .  S
C666        C667   1.439       .  A
C667        C674   1.506       .  S
C667        C668   1.412       .  A
C668        C669   1.406       .  A
C668        H673   1.084       .  S
C669        C670   1.440       .  A
C670        C671   1.529       .  S
C671        H675   1.107       .  S
C671        H676   1.109       .  S
C671        H677   1.100       .  S
C674        H678   1.111       .  S
C674        H679   1.093       .  S
C674        H680   1.110       .  S
C681       C1394   1.412       .  A
C681        C686   1.425       .  A
C681        H688   1.079       .  S
C682       C2105   1.411   1_455  A
C682        C683   1.437       .  A
C683        C690   1.516       .  S
C683        C684   1.399   1_455  A
C684       C2109   1.404       .  A
C684        H689   1.080       .  S
C685       C1396   1.404       .  A
C685        C686   1.448       .  A
C686        C687   1.513       .  S
C687        H691   1.111       .  S
C687        H692   1.110       .  S
C687        H693   1.096       .  S
C690        H694   1.111       .  S
C690        H695   1.088       .  S
C690        H696   1.111       .  S
C697        C698   1.425       .  A
C697        C702   1.412       .  A
C697        H704   1.072       .  S
C698        C699   1.432       .  A
C699        C706   1.489       .  S
C699        C700   1.404       .  A
C700        C701   1.405       .  A
C700        H705   1.079       .  S
C701        C702   1.428       .  A
C702        C703   1.514       .  S
C703        H707   1.111       .  S
C703        H708   1.111       .  S
C703        H709   1.101       .  S
C706        H710   1.101       .  S
C706        H711   1.102       .  S
C706        H712   1.110       .  S
C713       C1009   1.602       .  S
C713       C1022   1.578       .  S
C713       C1038   1.624       .  S
C713       C1054   1.603       .  S
C714        C958   1.586       .  S
C714        C974   1.584       .  S
C714        C990   1.571       .  S
C714       C1057   1.601       .  S
C715        C929   1.603       .  S
C715        C942   1.576       .  S
C715       C1025   1.559       .  S
C715       C1041   1.595       .  S
C716        C910   1.572       .  S
C716        C945   1.569       .  S
C716        C977   1.571       .  S
C716        C993   1.572       .  S
C717        C849   1.578       .  S
C717        C862   1.618       .  S
C717        C881   1.570       .  S
C717        C897   1.609       .  S
C718        C798   1.589       .  S
C718        C814   1.611       .  S
C718        C830   1.588       .  S
C718        C894   1.564       .  S
C719        C766   1.600       .  S
C719        C782   1.580       .  S
C719        C865   1.586       .  S
C719        C878   1.576       .  S
C720        C750   1.579       .  S
C720        C785   1.591       .  S
C720        C817   1.593       .  S
C720        C833   1.582       .  S
O721       Ni729   1.914       .  S
O721        C731   1.278       .  A
O722       Ni729   1.920       .  S
O722        C732   1.281       .  A
O723       Ni729   1.916       .  S
O723        C733   1.282       .  A
O724       Ni729   1.930       .  S
O724        C734   1.284       .  A
O725       Ni730   1.911       .  S
O725        C734   1.280       .  A
O726       Ni730   1.917       .  S
O726        C733   1.280       .  A
O727       Ni730   1.919       .  S
O727        C732   1.281       .  A
O728       Ni730   1.912       .  S
O728        C731   1.283       .  A
Ni729      Ni730   2.383       .  S
C731        C913   1.482       .  S
C732        C801   1.475       .  S
C733        C961   1.495       .  S
C734        C753   1.496       .  S
O735       Ni743   1.927   1_565  S
O736      Ni1099   1.918   1_554  S
O736        C746   1.279       .  A
O737      Ni1099   1.936   1_564  S
O737        C747   1.286       .  A
O738       Ni743   1.934       .  S
O739      Ni1100   1.904       .  S
O739        C748   1.277       .  A
O740       Ni744   1.907   1_565  S
O740       C1459   1.277       .  A
O741       Ni744   1.916       .  S
O741       C1458   1.283       .  A
O742      Ni1100   1.918   1_565  S
O742        C745   1.282       .  A
Ni743      O1092   1.919       .  S
Ni743      O1093   1.932   1_545  S
Ni744      O1095   1.905   1_554  S
Ni744      O1098   1.913   1_544  S
Ni744     Ni1811   2.387   1_554  S
C745       O1447   1.282       .  A
C745        C926   1.500       .  S
C746        C846   1.474       .  S
C747       C1006   1.479       .  S
C748       O1450   1.286       .  A
C748        C769   1.480       .  S
C749        C750   1.417       .  A
C749        C754   1.400       .  A
C749        H756   1.079       .  S
C750        C751   1.433       .  A
C751        C758   1.511       .  S
C751        C752   1.412       .  A
C752        C753   1.406       .  A
C752        H757   1.083       .  S
C753        C754   1.417       .  A
C754        C755   1.511       .  S
C755        H759   1.111       .  S
C755        H760   1.109       .  S
C755        H761   1.111       .  S
C758        H762   1.103       .  S
C758        H763   1.109       .  S
C758        H764   1.111       .  S
C765        C766   1.428       .  A
C765        C770   1.401       .  A
C765        H772   1.076       .  S
C766        C767   1.447       .  A
C767        C774   1.514       .  S
C767        C768   1.411       .  A
C768        C769   1.396       .  A
C768        H773   1.085       .  S
C769        C770   1.400       .  A
C770       C1483   1.508       .  S
C771        H775   1.111       .  S
C771        H777   1.110       .  S
C774        H778   1.102       .  S
C774        H779   1.101       .  S
C774        H780   1.111       .  S
H776       C1483   1.110       .  S
C781        C782   1.414       .  A
C781        C786   1.405       .  A
C781        H788   1.078       .  S
C782        C783   1.428       .  A
C783        C790   1.510       .  S
C783        C784   1.411       .  A
C784        C785   1.417       .  A
C784        H789   1.075       .  S
C785        C786   1.435       .  A
C786        C787   1.514       .  S
C787        H791   1.103       .  S
C787        H792   1.104       .  S
C787        H793   1.111       .  S
C790        H794   1.106       .  S
C790        H795   1.101       .  S
C790        H796   1.110       .  S
C797        C798   1.424       .  A
C797        C802   1.405       .  A
C797        H804   1.083       .  S
C798        C799   1.456       .  A
C799        C806   1.521       .  S
C799        C800   1.405       .  A
C800        C801   1.388       .  A
C800        H805   1.087       .  S
C801        C802   1.403       .  A
C802        C803   1.506       .  S
C803        H807   1.111       .  S
C803        H808   1.110       .  S
C803        H809   1.111       .  S
C806        H810   1.110       .  S
C806        H811   1.111       .  S
C806        H812   1.095       .  S
C813       C1526   1.421       .  A
C813        C818   1.422       .  A
C813       H1532   1.077       .  S
C814       C1171   1.441   1_554  A
C815        C822   1.513       .  S
C815       C1170   1.441       .  A
C816       C1527   1.402       .  A
C816        C817   1.408       .  A
C816        H821   1.074       .  S
C817       C1174   1.435       .  A
C818        C819   1.512       .  S
C818       C1173   1.434   1_554  A
C819        H823   1.110       .  S
C819        H824   1.104       .  S
C819        H825   1.107   1_554  S
C822        H826   1.098       .  S
C822        H827   1.111       .  S
C822        H828   1.102       .  S
C829       C1186   1.412       .  A
C829        C834   1.402       .  A
C829        H836   1.076       .  S
C830       C1185   1.413   1_554  A
C830        C831   1.439       .  A
C831        C838   1.508       .  S
C831        C832   1.414       .  A
C832       C1189   1.411   1_554  A
C832        H837   1.078       .  S
C833       C1188   1.412       .  A
C833        C834   1.434       .  A
C834        C835   1.518       .  S
C835        H839   1.107       .  S
C835        H840   1.103       .  S
C835        H841   1.111       .  S
C838        H842   1.110       .  S
C838        H843   1.100       .  S
C838        H844   1.103       .  S
C845        C846   1.387       .  A
C845        C850   1.397       .  A
C846        C847   1.407       .  A
C847        C854   1.505       .  S
C847        C848   1.410       .  A
C848        C849   1.423       .  A
C848        H853   1.079       .  S
C849        C850   1.444       .  A
C851       C1562   1.509       .  S
C851        H855   1.103       .  S
C851       H1568   1.098       .  S
C851        H857   1.111       .  S
H852       C1557   1.085       .  S
C854        H858   1.110       .  S
C854        H859   1.110       .  S
C854        H860   1.111       .  S
C861        C862   1.409       .  A
C861        C866   1.400       .  A
C861        H868   1.066       .  S
C862        C863   1.445       .  A
C863        C870   1.514       .  S
C863        C864   1.421       .  A
C864        C865   1.415       .  A
C864        H869   1.084       .  S
C865        C866   1.433       .  A
C866        C867   1.510       .  S
C867        H871   1.110       .  S
C867        H872   1.110       .  S
C867        H873   1.087       .  S
C870        H874   1.099       .  S
C870        H875   1.109       .  S
C870        H876   1.110       .  S
C877        C878   1.410       .  A
C877        C882   1.389       .  A
C877        H884   1.076       .  S
C878       C1591   1.442       .  A
C879        C886   1.512       .  S
C879        C880   1.420       .  A
C880        C881   1.414       .  A
C880        H885   1.084       .  S
C882        C883   1.516       .  S
C882       C1593   1.431       .  A
C883        H887   1.112       .  S
C883        H888   1.106       .  S
C883        H889   1.105       .  S
C886        H890   1.111       .  S
C886        H891   1.104       .  S
C886        H892   1.103       .  S
C893        C894   1.414       .  A
C893        C898   1.408       .  A
C893        H900   1.085       .  S
C894        C895   1.429       .  A
C895        C902   1.517       .  S
C895        C896   1.403       .  A
C896        C897   1.421       .  A
C896        H901   1.076       .  S
C897        C898   1.445       .  A
C898        C899   1.511       .  S
C899        H904   1.088       .  S
C902        H906   1.109       .  S
C902        H907   1.085       .  S
C902        H908   1.111       .  S
H903       C1611   1.110       .  S
H905       C1611   1.112       .  S
C909        C910   1.417       .  A
C909        C914   1.410       .  A
C909        H916   1.077       .  S
C910        C911   1.435       .  A
C911        C918   1.506       .  S
C911        C912   1.395       .  A
C912        C913   1.393       .  A
C912        H917   1.086       .  S
C913        C914   1.415       .  A
C914        C915   1.506       .  S
C915        H919   1.111       .  S
C915        H920   1.110       .  S
C915        H921   1.110       .  S
C918        H922   1.108       .  S
C918        H923   1.097       .  S
C918        H924   1.111       .  S
C925        C926   1.408       .  A
C925        C930   1.414       .  A
C925       H1644   1.084       .  S
C926        C927   1.414       .  A
C927        C934   1.511       .  S
C927        C928   1.404       .  A
C928        C929   1.421       .  A
C928        H933   1.065       .  S
C929        C930   1.429       .  A
C930        C931   1.503       .  S
C931       H1647   1.111       .  S
C931        H936   1.106       .  S
C931       H1649   1.105       .  S
C934        H938   1.110       .  S
C934        H939   1.110       .  S
C934        H940   1.111       .  S
C941        C942   1.413       .  A
C941        C946   1.398       .  A
C941        H948   1.071       .  S
C942        C943   1.431       .  A
C943        C950   1.507       .  S
C943        C944   1.408       .  A
C944        C945   1.413       .  A
C944        H949   1.076       .  S
C945        C946   1.430       .  A
C946        C947   1.517       .  S
C947        H951   1.110       .  S
C947        H952   1.094       .  S
C947        H953   1.111       .  S
C950        H954   1.101       .  S
C950        H955   1.104       .  S
C950        H956   1.111       .  S
C957        C958   1.421       .  A
C957        C962   1.398       .  A
C957        H964   1.072       .  S
C958        C959   1.441       .  A
C959        C966   1.516       .  S
C959        C960   1.411       .  A
C960        C961   1.407       .  A
C960        H965   1.084       .  S
C961        C962   1.410       .  A
C962        C963   1.511       .  S
C963        H967   1.104       .  S
C963        H968   1.110       .  S
C963        H969   1.109       .  S
C966        H970   1.110       .  S
C966        H971   1.105       .  S
C966        H972   1.109       .  S
C973       C1330   1.407       .  A
C973        H980   1.063       .  S
C974       C1329   1.409   1_554  A
C974        C975   1.439       .  A
C975        C982   1.518       .  S
C976       C1687   1.406   1_556  A
C976       C1333   1.410       .  A
C976        H981   1.070   1_556  S
C977       C1332   1.410       .  A
C977        C978   1.428       .  A
C978        C979   1.517       .  S
C978       C1685   1.398       .  A
C979       H1695   1.111       .  S
C979        H984   1.109       .  S
C979        H985   1.097       .  S
C982        H986   1.108       .  S
C982        H987   1.097       .  S
H988       C1694   1.112       .  S
C989        C990   1.419       .  A
C989        C994   1.413       .  A
C989        H996   1.083       .  S
C990       C1347   1.427   1_554  A
C991        C998   1.517       .  S
C991       C1346   1.428       .  A
C991        C992   1.393       .  A
C992        C993   1.409       .  A
C992        H997   1.071       .  S
C993       C1350   1.434       .  A
C994        C995   1.513       .  S
C994       C1349   1.435   1_554  A
C995        H999   1.112       .  S
C995       H1000   1.095       .  S
C995       H1001   1.111       .  S
C998       H1002   1.100       .  S
C998       H1003   1.103       .  S
C998       H1004   1.112       .  S
C1005      C1006   1.392       .  A
C1005      C1010   1.409       .  A
C1005      H1012   1.084       .  S
C1006      C1007   1.403       .  A
C1007      C1008   1.405       .  A
C1008      C1009   1.425       .  A
C1009      C1010   1.448       .  A
C1010      C1011   1.510       .  S
C1011      H1015   1.112       .  S
C1011      H1016   1.107       .  S
C1011      H1017   1.097       .  S
H1013      C1720   1.071       .  S
C1014      C1719   1.509       .  S
C1014      H1018   1.110       .  S
C1014      H1019   1.110       .  S
C1014      H1020   1.111       .  S
C1021      C1022   1.395       .  A
C1021      C1026   1.392       .  A
C1021      H1028   1.069       .  S
C1022      C1023   1.439       .  A
C1023      C1030   1.507       .  S
C1023      C1024   1.411       .  A
C1024      C1025   1.405       .  A
C1024      H1029   1.083       .  S
C1025      C1026   1.440       .  A
C1026      C1027   1.528       .  S
C1027      H1031   1.107       .  S
C1027      H1032   1.109       .  S
C1027      H1033   1.100       .  S
C1030      H1034   1.111       .  S
C1030      H1035   1.094       .  S
C1030      H1036   1.109       .  S
C1037      C1750   1.411       .  A
C1037      C1042   1.423       .  A
C1037      H1044   1.079       .  S
C1038      C1039   1.436       .  A
C1039      C1046   1.514       .  S
C1039      C1040   1.399       .  A
C1040      H1045   1.081       .  S
C1041      C1752   1.405       .  A
C1041      C1042   1.449       .  A
C1042      C1043   1.514       .  S
C1043      H1047   1.111       .  S
C1043      H1048   1.110       .  S
C1043      H1049   1.096       .  S
C1046      H1050   1.110       .  S
C1046      H1051   1.087       .  S
C1046      H1052   1.111       .  S
C1053      C1054   1.423       .  A
C1053      C1058   1.411       .  A
C1053      H1060   1.073       .  S
C1054      C1055   1.433       .  A
C1055      C1062   1.490       .  S
C1055      C1056   1.405       .  A
C1056      C1057   1.403       .  A
C1056      H1061   1.079       .  S
C1057      C1058   1.428       .  A
C1058      C1059   1.513       .  S
C1059      H1063   1.111       .  S
C1059      H1064   1.111       .  S
C1059      H1065   1.101       .  S
C1062      H1066   1.101       .  S
C1062      H1067   1.102       .  S
C1062      H1068   1.110       .  S
C1069      C1365   1.602       .  S
C1069      C1378   1.578       .  S
C1069      C1394   1.625       .  S
C1069      C1410   1.601       .  S
C1070      C1314   1.583       .  S
C1070      C1330   1.581       .  S
C1070      C1346   1.571       .  S
C1070      C1413   1.599       .  S
C1071      C1285   1.599       .  S
C1071      C1298   1.578       .  S
C1071      C1381   1.554       .  S
C1071      C1397   1.593       .  S
C1072      C1266   1.576       .  S
C1072      C1301   1.569       .  S
C1072      C1333   1.571       .  S
C1072      C1349   1.572       .  S
C1073      C1205   1.581       .  S
C1073      C1218   1.616       .  S
C1073      C1237   1.562       .  S
C1073      C1253   1.608       .  S
C1074      C1154   1.589       .  S
C1074      C1170   1.609       .  S
C1074      C1186   1.584       .  S
C1074      C1250   1.562       .  S
C1075      C1122   1.600       .  S
C1075      C1138   1.583       .  S
C1075      C1221   1.582       .  S
C1075      C1234   1.576       .  S
C1076      C1106   1.579       .  S
C1076      C1141   1.591       .  S
C1076      C1173   1.596       .  S
C1076      C1189   1.583       .  S
O1077     Ni1085   1.916       .  S
O1077      C1087   1.279       .  A
O1078     Ni1085   1.922       .  S
O1078      C1088   1.281       .  A
O1079     Ni1085   1.910       .  S
O1079      C1089   1.281       .  A
O1080     Ni1085   1.924       .  S
O1080      C1090   1.283       .  A
O1081     Ni1086   1.912       .  S
O1081      C1090   1.280       .  A
O1082     Ni1086   1.916       .  S
O1082      C1089   1.280       .  A
O1083     Ni1086   1.918       .  S
O1083      C1088   1.280       .  A
O1084     Ni1086   1.913       .  S
O1084      C1087   1.283       .  A
Ni1085    Ni1086   2.384       .  S
C1087      C1269   1.481       .  S
C1088      C1157   1.475       .  S
C1089      C1317   1.491       .  S
C1090      C1109   1.494       .  S
O1091     Ni1099   1.929   1_565  S
O1092      C1102   1.279       .  A
O1093      C1103   1.285       .  A
O1094     Ni1099   1.938       .  S
O1095      C1104   1.277       .  A
O1096     Ni1100   1.907   1_565  S
O1096      C1815   1.277       .  A
O1097     Ni1100   1.919       .  S
O1097      C1814   1.284       .  A
O1098      C1101   1.281       .  A
Ni1100    Ni1455   2.386       .  S
C1101      O1803   1.282       .  A
C1101      C1282   1.498       .  S
C1102      C1202   1.478       .  S
C1103      C1362   1.476       .  S
C1104      O1806   1.286       .  A
C1104      C1125   1.481       .  S
C1105      C1106   1.417       .  A
C1105      C1110   1.400       .  A
C1105      H1112   1.079       .  S
C1106      C1107   1.431       .  A
C1107      C1114   1.511       .  S
C1107      C1108   1.411       .  A
C1108      C1109   1.406       .  A
C1108      H1113   1.083       .  S
C1109      C1110   1.416       .  A
C1110      C1111   1.511       .  S
C1111      H1115   1.111       .  S
C1111      H1116   1.109       .  S
C1111      H1117   1.111       .  S
C1114      H1118   1.103       .  S
C1114      H1119   1.109       .  S
C1114      H1120   1.111       .  S
C1121      C1122   1.428       .  A
C1121      C1126   1.402       .  A
C1121      H1128   1.077       .  S
C1122      C1123   1.448       .  A
C1123      C1130   1.514       .  S
C1123      C1124   1.411       .  A
C1124      C1125   1.395       .  A
C1124      H1129   1.085       .  S
C1125      C1126   1.401       .  A
C1126      C1839   1.508       .  S
C1127      H1131   1.111       .  S
C1127      H1133   1.110       .  S
C1130      H1134   1.102       .  S
C1130      H1135   1.101       .  S
C1130      H1136   1.111       .  S
H1132      C1839   1.110       .  S
C1137      C1138   1.414       .  A
C1137      C1142   1.405       .  A
C1137      H1144   1.078       .  S
C1138      C1139   1.428       .  A
C1139      C1146   1.510       .  S
C1139      C1140   1.411       .  A
C1140      C1141   1.418       .  A
C1140      H1145   1.075       .  S
C1141      C1142   1.434       .  A
C1142      C1143   1.514       .  S
C1143      H1147   1.103       .  S
C1143      H1148   1.104   1_556  S
C1143      H1149   1.111       .  S
C1146      H1150   1.107       .  S
C1146      H1151   1.101       .  S
C1146      H1152   1.110       .  S
C1153      C1154   1.425       .  A
C1153      C1158   1.406       .  A
C1153      H1160   1.083       .  S
C1154      C1155   1.454       .  A
C1155      C1162   1.520       .  S
C1155      C1156   1.404       .  A
C1156      C1157   1.389       .  A
C1156      H1161   1.087       .  S
C1157      C1158   1.403       .  A
C1158      C1159   1.506       .  S
C1159      H1163   1.111       .  S
C1159      H1164   1.110       .  S
C1159      H1165   1.110       .  S
C1162      H1166   1.110       .  S
C1162      H1167   1.110       .  S
C1162      H1168   1.095       .  S
C1169      C1882   1.419       .  A
C1169      C1174   1.420       .  A
C1169      H1888   1.077       .  S
C1171      C1178   1.513       .  S
C1172      C1883   1.404   1_556  A
C1172      C1173   1.407       .  A
C1172      H1177   1.074       .  S
C1174      C1175   1.512       .  S
C1175      H1179   1.110       .  S
C1175      H1180   1.103       .  S
C1175      H1181   1.107       .  S
C1178      H1182   1.098       .  S
C1178      H1183   1.111       .  S
C1178      H1184   1.103   1_556  S
C1185      C1190   1.402       .  A
C1185      H1192   1.075       .  S
C1186      C1187   1.438       .  A
C1187      C1194   1.509       .  S
C1187      C1188   1.412       .  A
C1188      H1193   1.078       .  S
C1189      C1190   1.435       .  A
C1190      C1191   1.518       .  S
C1191      H1195   1.107       .  S
C1191      H1196   1.102       .  S
C1191      H1197   1.111       .  S
C1194      H1198   1.110       .  S
C1194      H1199   1.100       .  S
C1194      H1200   1.103       .  S
C1201      C1202   1.387       .  A
C1201      C1206   1.398       .  A
C1202      C1203   1.408       .  A
C1203      C1210   1.505       .  S
C1203      C1204   1.411       .  A
C1204      C1205   1.422       .  A
C1204      H1209   1.079       .  S
C1205      C1206   1.444       .  A
C1207      C1918   1.509       .  S
C1207      H1211   1.103       .  S
C1207      H1924   1.098       .  S
C1207      H1213   1.111       .  S
H1208      C1913   1.085       .  S
C1210      H1214   1.110       .  S
C1210      H1215   1.110       .  S
C1210      H1216   1.111       .  S
C1217      C1218   1.408       .  A
C1217      C1222   1.398       .  A
C1217      H1224   1.067       .  S
C1218      C1219   1.447       .  A
C1219      C1226   1.516       .  S
C1219      C1220   1.419       .  A
C1220      C1221   1.413       .  A
C1220      H1225   1.084       .  S
C1221      C1222   1.433       .  A
C1222      C1223   1.510       .  S
C1223      H1227   1.110       .  S
C1223      H1228   1.110       .  S
C1223      H1229   1.088       .  S
C1226      H1230   1.098       .  S
C1226      H1231   1.109       .  S
C1226      H1232   1.110       .  S
C1233      C1234   1.410       .  A
C1233      C1238   1.389       .  A
C1233      H1240   1.076       .  S
C1234      C1947   1.440       .  A
C1235      C1242   1.513       .  S
C1235      C1236   1.417       .  A
C1236      C1237   1.411       .  A
C1236      H1241   1.084       .  S
C1238      C1239   1.517       .  S
C1238      C1949   1.430       .  A
C1239      H1243   1.112       .  S
C1239      H1244   1.106       .  S
C1239      H1245   1.105       .  S
C1242      H1246   1.111       .  S
C1242      H1247   1.104       .  S
C1242      H1248   1.103       .  S
C1249      C1250   1.413       .  A
C1249      C1254   1.406       .  A
C1249      H1256   1.085       .  S
C1250      C1251   1.428       .  A
C1251      C1258   1.518       .  S
C1251      C1252   1.402       .  A
C1252      C1253   1.420       .  A
C1252      H1257   1.076       .  S
C1253      C1254   1.445       .  A
C1254      C1255   1.512       .  S
C1255      H1260   1.087       .  S
C1258      H1262   1.109       .  S
C1258      H1263   1.085       .  S
C1258      H1264   1.111       .  S
H1259      C1967   1.110       .  S
H1261      C1967   1.112       .  S
C1265      C1266   1.418       .  A
C1265      C1270   1.409       .  A
C1265      H1272   1.076       .  S
C1266      C1267   1.439       .  A
C1267      C1274   1.509       .  S
C1267      C1268   1.398       .  A
C1268      C1269   1.393       .  A
C1268      H1273   1.086       .  S
C1269      C1270   1.412       .  A
C1270      C1271   1.507       .  S
C1271      H1275   1.111       .  S
C1271      H1276   1.111       .  S
C1271      H1277   1.110       .  S
C1274      H1278   1.108       .  S
C1274      H1279   1.096       .  S
C1274      H1280   1.111       .  S
C1281      C1282   1.408       .  A
C1281      C1286   1.413       .  A
C1281      H2000   1.084       .  S
C1282      C1283   1.415       .  A
C1283      C1290   1.512       .  S
C1283      C1284   1.402       .  A
C1284      C1285   1.419       .  A
C1284      H1289   1.065       .  S
C1285      C1286   1.428       .  A
C1286      C1287   1.504       .  S
C1287      H2003   1.111       .  S
C1287      H1292   1.107       .  S
C1287      H2005   1.104       .  S
C1290      H1294   1.111       .  S
C1290      H1295   1.110       .  S
C1290      H1296   1.111       .  S
C1297      C1298   1.413       .  A
C1297      C1302   1.398       .  A
C1297      H1304   1.070       .  S
C1298      C1299   1.431       .  A
C1299      C1306   1.507       .  S
C1299      C1300   1.410       .  A
C1300      C1301   1.414       .  A
C1300      H1305   1.077       .  S
C1301      C1302   1.429       .  A
C1302      C1303   1.517       .  S
C1303      H1307   1.110       .  S
C1303      H1308   1.093       .  S
C1303      H1309   1.111       .  S
C1306      H1310   1.102       .  S
C1306      H1311   1.104       .  S
C1306      H1312   1.110       .  S
C1313      C1314   1.421       .  A
C1313      C1318   1.398       .  A
C1313      H1320   1.072       .  S
C1314      C1315   1.441       .  A
C1315      C1322   1.516       .  S
C1315      C1316   1.408       .  A
C1316      C1317   1.405       .  A
C1316      H1321   1.084       .  S
C1317      C1318   1.410       .  A
C1318      C1319   1.511       .  S
C1319      H1323   1.101       .  S
C1319      H1324   1.110       .  S
C1319      H1325   1.109       .  S
C1322      H1326   1.110       .  S
C1322      H1327   1.104       .  S
C1322      H1328   1.109       .  S
C1329      H1336   1.063       .  S
C1330      C1331   1.440       .  A
C1331      C1338   1.518       .  S
C1332      C2043   1.405       .  A
C1332      H1337   1.072       .  S
C1333      C1334   1.430       .  A
C1334      C1335   1.515       .  S
C1334      C2041   1.400       .  A
C1335      H2051   1.110       .  S
C1335      H1340   1.110       .  S
C1335      H1341   1.096       .  S
C1338      H1342   1.108       .  S
C1338      H1343   1.097       .  S
H1344      C2050   1.112       .  S
C1345      C1346   1.420       .  A
C1345      C1350   1.415       .  A
C1345      H1352   1.082       .  S
C1347      C1354   1.518       .  S
C1347      C1348   1.394       .  A
C1348      C1349   1.410       .  A
C1348      H1353   1.069       .  S
C1350      C1351   1.513       .  S
C1351      H1355   1.111       .  S
C1351      H1356   1.103       .  S
C1351      H1357   1.106       .  S
C1354      H1358   1.100       .  S
C1354      H1359   1.104       .  S
C1354      H1360   1.111       .  S
C1361      C1362   1.390       .  A
C1361      C1366   1.408       .  A
C1361      H1368   1.084       .  S
C1362      C1363   1.402       .  A
C1363      C1364   1.404       .  A
C1364      C1365   1.425       .  A
C1365      C1366   1.448       .  A
C1366      C1367   1.510       .  S
C1367      H1371   1.112       .  S
C1367      H1372   1.106       .  S
C1367      H1373   1.096       .  S
H1369      C2076   1.071       .  S
C1370      C2075   1.509       .  S
C1370      H1374   1.110       .  S
C1370      H1375   1.110       .  S
C1370      H1376   1.111       .  S
C1377      C1378   1.398       .  A
C1377      C1382   1.391       .  A
C1377      H1384   1.068       .  S
C1378      C1379   1.441       .  A
C1379      C1386   1.507       .  S
C1379      C1380   1.412       .  A
C1380      C1381   1.404       .  A
C1380      H1385   1.083       .  S
C1381      C1382   1.438       .  A
C1382      C1383   1.529       .  S
C1383      H1387   1.107       .  S
C1383      H1388   1.110       .  S
C1383      H1389   1.101       .  S
C1386      H1390   1.111       .  S
C1386      H1391   1.103       .  S
C1386      H1392   1.106       .  S
C1393      C2106   1.409       .  A
C1393      C1398   1.424       .  A
C1393      H1400   1.080       .  S
C1394      C1395   1.436       .  A
C1395      C1402   1.515       .  S
C1395      C1396   1.398       .  A
C1396      H1401   1.080       .  S
C1397      C2108   1.403       .  A
C1397      C1398   1.450       .  A
C1398      C1399   1.513       .  S
C1399      H1403   1.111       .  S
C1399      H1404   1.110       .  S
C1399      H1405   1.095       .  S
C1402      H1406   1.110       .  S
C1402      H1407   1.087       .  S
C1402      H1408   1.111       .  S
C1409      C1410   1.424       .  A
C1409      C1414   1.412       .  A
C1409      H1416   1.074       .  S
C1410      C1411   1.433       .  A
C1411      C1418   1.490       .  S
C1411      C1412   1.404       .  A
C1412      C1413   1.403       .  A
C1412      H1417   1.079       .  S
C1413      C1414   1.428       .  A
C1414      C1415   1.514       .  S
C1415      H1419   1.111       .  S
C1415      H1420   1.111       .  S
C1415      H1421   1.102       .  S
C1418      H1422   1.101       .  S
C1418      H1423   1.103       .  S
C1418      H1424   1.111       .  S
C1425      C1721   1.604       .  S
C1425      C1734   1.577       .  S
C1425      C1750   1.626       .  S
C1425      C1766   1.600       .  S
C1426      C1670   1.583       .  S
C1426      C1686   1.585       .  S
C1426      C1702   1.574       .  S
C1426      C1769   1.601       .  S
C1427      C1641   1.603       .  S
C1427      C1654   1.578       .  S
C1427      C1737   1.559       .  S
C1427      C1753   1.596       .  S
C1428      C1622   1.576       .  S
C1428      C1657   1.572       .  S
C1428      C1689   1.575       .  S
C1428      C1705   1.574       .  S
C1429      C1561   1.577       .  S
C1429      C1574   1.617       .  S
C1429      C1593   1.566       .  S
C1429      C1609   1.609       .  S
C1430      C1510   1.590       .  S
C1430      C1526   1.613       .  S
C1430      C1542   1.588       .  S
C1430      C1606   1.562       .  S
C1431      C1478   1.602       .  S
C1431      C1494   1.584       .  S
C1431      C1577   1.585       .  S
C1431      C1590   1.576       .  S
C1432      C1462   1.578       .  S
C1432      C1497   1.594       .  S
C1432      C1529   1.595       .  S
C1432      C1545   1.582       .  S
O1433     Ni1441   1.919       .  S
O1433      C1443   1.279       .  A
O1434     Ni1441   1.923       .  S
O1434      C1444   1.281       .  A
O1435     Ni1441   1.913       .  S
O1435      C1445   1.282       .  A
O1436     Ni1441   1.929       .  S
O1436      C1446   1.284       .  A
O1437     Ni1442   1.908       .  S
O1437      C1446   1.279       .  A
O1438     Ni1442   1.912       .  S
O1438      C1445   1.279       .  A
O1439     Ni1442   1.921       .  S
O1439      C1444   1.281       .  A
O1440     Ni1442   1.916       .  S
O1440      C1443   1.284       .  A
Ni1441    Ni1442   2.383       .  S
C1443      C1625   1.486       .  S
C1444      C1513   1.478       .  S
C1445      C1673   1.491       .  S
C1446      C1465   1.495       .  S
O1447     Ni1455   1.925   1_565  S
O1448     Ni1811   1.916   1_554  S
O1448      C1458   1.278       .  A
O1449     Ni1811   1.935   1_564  S
O1449      C1459   1.285       .  A
O1450     Ni1455   1.937       .  S
O1451     Ni1812   1.905       .  S
O1451      C1460   1.277       .  A
O1452     Ni1456   1.909   1_565  S
O1453     Ni1456   1.918       .  S
O1454     Ni1812   1.918   1_565  S
O1454      C1457   1.282       .  A
Ni1455     O1804   1.916       .  S
Ni1455     O1805   1.935   1_545  S
Ni1456     O1807   1.906   1_554  S
Ni1456     O1810   1.913   1_544  S
C1457      C1638   1.501       .  S
C1458      C1558   1.474       .  S
C1459      C1718   1.477       .  S
C1460      C1481   1.483       .  S
C1461      C1462   1.417       .  A
C1461      C1466   1.399       .  A
C1461      H1468   1.079       .  S
C1462      C1463   1.432       .  A
C1463      C1470   1.511       .  S
C1463      C1464   1.412       .  A
C1464      C1465   1.406       .  A
C1464      H1469   1.083       .  S
C1465      C1466   1.416       .  A
C1466      C1467   1.512       .  S
C1467      H1471   1.111       .  S
C1467      H1472   1.109       .  S
C1467      H1473   1.111       .  S
C1470      H1474   1.104       .  S
C1470      H1475   1.109       .  S
C1470      H1476   1.111       .  S
C1477      C1478   1.428       .  A
C1477      C1482   1.403       .  A
C1477      H1484   1.077       .  S
C1478      C1479   1.447       .  A
C1479      C1486   1.513       .  S
C1479      C1480   1.412       .  A
C1480      C1481   1.397       .  A
C1480      H1485   1.085       .  S
C1481      C1482   1.401       .  A
C1483      H1487   1.111       .  S
C1483      H1489   1.110       .  S
C1486      H1490   1.102       .  S
C1486      H1491   1.100       .  S
C1486      H1492   1.111       .  S
C1493      C1494   1.415       .  A
C1493      C1498   1.406       .  A
C1493      H1500   1.078       .  S
C1494      C1495   1.429       .  A
C1495      C1502   1.510       .  S
C1495      C1496   1.413       .  A
C1496      C1497   1.419       .  A
C1496      H1501   1.075       .  S
C1497      C1498   1.434       .  A
C1498      C1499   1.514       .  S
C1499      H1503   1.103       .  S
C1499      H1504   1.104       .  S
C1499      H1505   1.111       .  S
C1502      H1506   1.106       .  S
C1502      H1507   1.101       .  S
C1502      H1508   1.110       .  S
C1509      C1510   1.424       .  A
C1509      C1514   1.407       .  A
C1509      H1516   1.083       .  S
C1510      C1511   1.457       .  A
C1511      C1518   1.521       .  S
C1511      C1512   1.406       .  A
C1512      C1513   1.388       .  A
C1512      H1517   1.087       .  S
C1513      C1514   1.404       .  A
C1514      C1515   1.506       .  S
C1515      H1519   1.111       .  S
C1515      H1520   1.109       .  S
C1515      H1521   1.111       .  S
C1518      H1522   1.110       .  S
C1518      H1523   1.111       .  S
C1518      H1524   1.096       .  S
C1525      C1530   1.422   1_455  A
C1526      C1883   1.444       .  A
C1527      C1534   1.513       .  S
C1527      C1882   1.441       .  A
C1528      C1529   1.406       .  A
C1528      H1533   1.075       .  S
C1529      C1886   1.435       .  A
C1530      C1531   1.513       .  S
C1530      C1885   1.435   1_554  A
C1531      H1535   1.110       .  S
C1531      H1536   1.103       .  S
C1531      H1537   1.107   1_554  S
C1534      H1538   1.098       .  S
C1534      H1539   1.111       .  S
C1534      H1540   1.102       .  S
C1541      C1898   1.413       .  A
C1541      C1546   1.402       .  A
C1541      H1548   1.076       .  S
C1542      C1897   1.412   1_554  A
C1542      C1543   1.437       .  A
C1543      C1550   1.512       .  S
C1543      C1544   1.413       .  A
C1544      C1901   1.413   1_554  A
C1544      H1549   1.078       .  S
C1545      C1900   1.412       .  A
C1545      C1546   1.434       .  A
C1546      C1547   1.518       .  S
C1547      H1551   1.107       .  S
C1547      H1552   1.103       .  S
C1547      H1553   1.111       .  S
C1550      H1554   1.111       .  S
C1550      H1555   1.099       .  S
C1550      H1556   1.106       .  S
C1557      C1558   1.388       .  A
C1557      C1562   1.398       .  A
C1558      C1559   1.407       .  A
C1559      C1566   1.506       .  S
C1559      C1560   1.409       .  A
C1560      C1561   1.423       .  A
C1560      H1565   1.079       .  S
C1561      C1562   1.443       .  A
C1563      H1567   1.103       .  S
C1563      H1569   1.111       .  S
C1566      H1570   1.110       .  S
C1566      H1571   1.110       .  S
C1566      H1572   1.111       .  S
C1573      C1574   1.408       .  A
C1573      C1578   1.399       .  A
C1573      H1580   1.068       .  S
C1574      C1575   1.447       .  A
C1575      C1582   1.515       .  S
C1575      C1576   1.420       .  A
C1576      C1577   1.413       .  A
C1576      H1581   1.084       .  S
C1577      C1578   1.434       .  A
C1578      C1579   1.510       .  S
C1579      H1583   1.110       .  S
C1579      H1584   1.110       .  S
C1579      H1585   1.087       .  S
C1582      H1586   1.098       .  S
C1582      H1587   1.109       .  S
C1582      H1588   1.110       .  S
C1589      C1590   1.411       .  A
C1589      C1594   1.389       .  A
C1589      H1596   1.077       .  S
C1591      C1598   1.514       .  S
C1591      C1592   1.417       .  A
C1592      C1593   1.413       .  A
C1592      H1597   1.085       .  S
C1594      C1595   1.516       .  S
C1595      H1599   1.112       .  S
C1595      H1600   1.106   1_655  S
C1595      H1601   1.105       .  S
C1598      H1602   1.111       .  S
C1598      H1603   1.103       .  S
C1598      H1604   1.103       .  S
C1605      C1606   1.414       .  A
C1605      C1610   1.407       .  A
C1605      H1612   1.085       .  S
C1606      C1607   1.428       .  A
C1607      C1614   1.519       .  S
C1607      C1608   1.405       .  A
C1608      C1609   1.421       .  A
C1608      H1613   1.076       .  S
C1609      C1610   1.444       .  A
C1610      C1611   1.511       .  S
C1611      H1616   1.087       .  S
C1614      H1618   1.101       .  S
C1614      H1619   1.095       .  S
C1614      H1620   1.110       .  S
C1621      C1622   1.417       .  A
C1621      C1626   1.412       .  A
C1621      H1628   1.078       .  S
C1622      C1623   1.436       .  A
C1623      C1630   1.508       .  S
C1623      C1624   1.396       .  A
C1624      C1625   1.394       .  A
C1624      H1629   1.086       .  S
C1625      C1626   1.416       .  A
C1626      C1627   1.506       .  S
C1627      H1631   1.111       .  S
C1627      H1632   1.110       .  S
C1627      H1633   1.110       .  S
C1630      H1634   1.107       .  S
C1630      H1635   1.097       .  S
C1630      H1636   1.111       .  S
C1637      C1638   1.408       .  A
C1637      C1642   1.415       .  A
C1638      C1639   1.415       .  A
C1639      C1646   1.511       .  S
C1639      C1640   1.404       .  A
C1640      C1641   1.420       .  A
C1640      H1645   1.067       .  S
C1641      C1642   1.429       .  A
C1642      C1643   1.502       .  S
C1643      H1648   1.107       .  S
C1646      H1650   1.110       .  S
C1646      H1651   1.110       .  S
C1646      H1652   1.111       .  S
C1653      C1654   1.412       .  A
C1653      C1658   1.398       .  A
C1653      H1660   1.071       .  S
C1654      C1655   1.430       .  A
C1655      C1662   1.506       .  S
C1655      C1656   1.410       .  A
C1656      C1657   1.413       .  A
C1656      H1661   1.076       .  S
C1657      C1658   1.431       .  A
C1658      C1659   1.517       .  S
C1659      H1663   1.110       .  S
C1659      H1664   1.093       .  S
C1659      H1665   1.111       .  S
C1662      H1666   1.101       .  S
C1662      H1667   1.105       .  S
C1662      H1668   1.110       .  S
C1669      C1670   1.421       .  A
C1669      C1674   1.397       .  A
C1669      H1676   1.073       .  S
C1670      C1671   1.441       .  A
C1671      C1678   1.516       .  S
C1671      C1672   1.409       .  A
C1672      C1673   1.405       .  A
C1672      H1677   1.084       .  S
C1673      C1674   1.409       .  A
C1674      C1675   1.510       .  S
C1675      H1679   1.101       .  S
C1675      H1680   1.109       .  S
C1675      H1681   1.109       .  S
C1678      H1682   1.110       .  S
C1678      H1683   1.104       .  S
C1678      H1684   1.109       .  S
C1685      C2042   1.407       .  A
C1685      H1692   1.063       .  S
C1686      C2041   1.406   1_554  A
C1686      C1687   1.440       .  A
C1687      C1694   1.518       .  S
C1688      C2045   1.411       .  A
C1688      H1693   1.072       .  S
C1689      C2044   1.410       .  A
C1689      C1690   1.428   1_655  A
C1690      C1691   1.516       .  S
C1691      H1696   1.109       .  S
C1691      H1697   1.098   1_455  S
C1694      H1698   1.107       .  S
C1694      H1699   1.098       .  S
C1701      C1702   1.420       .  A
C1701      C1706   1.416       .  A
C1701      H1708   1.082       .  S
C1702      C2059   1.427   1_554  A
C1703      C1710   1.518       .  S
C1703      C2058   1.428       .  A
C1703      C1704   1.392       .  A
C1704      C1705   1.408       .  A
C1704      H1709   1.069       .  S
C1705      C2062   1.435       .  A
C1706      C1707   1.513       .  S
C1706      C2061   1.434   1_554  A
C1707      H1711   1.111       .  S
C1707      H1712   1.103       .  S
C1707      H1713   1.106       .  S
C1710      H1714   1.100       .  S
C1710      H1715   1.103       .  S
C1710      H1716   1.112       .  S
C1717      C1718   1.390       .  A
C1717      C1722   1.409       .  A
C1717      H1724   1.085       .  S
C1718      C1719   1.402       .  A
C1719      C1720   1.405       .  A
C1720      C1721   1.426       .  A
C1721      C1722   1.449       .  A
C1722      C1723   1.511       .  S
C1723      H1727   1.112       .  S
C1723      H1728   1.105       .  S
C1723      H1729   1.098       .  S
C1726      H1730   1.110       .  S
C1726      H1731   1.110       .  S
C1726      H1732   1.111       .  S
C1733      C1734   1.395       .  A
C1733      C1738   1.392       .  A
C1733      H1740   1.068       .  S
C1734      C1735   1.442       .  A
C1735      C1742   1.508       .  S
C1735      C1736   1.414       .  A
C1736      C1737   1.405       .  A
C1736      H1741   1.083       .  S
C1737      C1738   1.439       .  A
C1738      C1739   1.527       .  S
C1739      H1743   1.108       .  S
C1739      H1744   1.110       .  S
C1739      H1745   1.100       .  S
C1742      H1746   1.111       .  S
C1742      H1747   1.104       .  S
C1742      H1748   1.106       .  S
C1749      C1754   1.424       .  A
C1749      H1756   1.079       .  S
C1750      C1751   1.440       .  A
C1751      C1758   1.515       .  S
C1751      C1752   1.401       .  A
C1752      H1757   1.080       .  S
C1753      C1754   1.448       .  A
C1754      C1755   1.513       .  S
C1755      H1759   1.111       .  S
C1755      H1760   1.110       .  S
C1755      H1761   1.096       .  S
C1758      H1762   1.111       .  S
C1758      H1763   1.087       .  S
C1758      H1764   1.110       .  S
C1765      C1766   1.424       .  A
C1765      C1770   1.414       .  A
C1765      H1772   1.075       .  S
C1766      C1767   1.431       .  A
C1767      C1774   1.491       .  S
C1767      C1768   1.403       .  A
C1768      C1769   1.405       .  A
C1768      H1773   1.079       .  S
C1769      C1770   1.429       .  A
C1770      C1771   1.512       .  S
C1771      H1775   1.111       .  S
C1771      H1776   1.111   1_554  S
C1771      H1777   1.102       .  S
C1774      H1778   1.101       .  S
C1774      H1779   1.103       .  S
C1774      H1780   1.111       .  S
C1781      C2077   1.603       .  S
C1781      C2090   1.579       .  S
C1781      C2106   1.624       .  S
C1781      C2122   1.602       .  S
C1782      C2026   1.584       .  S
C1782      C2042   1.583       .  S
C1782      C2058   1.572       .  S
C1782      C2125   1.604       .  S
C1783      C1997   1.598       .  S
C1783      C2010   1.578       .  S
C1783      C2093   1.554       .  S
C1783      C2109   1.593       .  S
C1784      C1978   1.573       .  S
C1784      C2013   1.572       .  S
C1784      C2045   1.573       .  S
C1784      C2061   1.573       .  S
C1785      C1917   1.579       .  S
C1785      C1930   1.619       .  S
C1785      C1949   1.567       .  S
C1785      C1965   1.606       .  S
C1786      C1866   1.589       .  S
C1786      C1882   1.607       .  S
C1786      C1898   1.584       .  S
C1786      C1962   1.561       .  S
C1787      C1834   1.599       .  S
C1787      C1850   1.583       .  S
C1787      C1933   1.586       .  S
C1787      C1946   1.577       .  S
C1788      C1818   1.579       .  S
C1788      C1853   1.593       .  S
C1788      C1885   1.596       .  S
C1788      C1901   1.582       .  S
O1789     Ni1797   1.916       .  S
O1789      C1799   1.278       .  A
O1790     Ni1797   1.921       .  S
O1790      C1800   1.281       .  A
O1791     Ni1797   1.914       .  S
O1791      C1801   1.282       .  A
O1792     Ni1797   1.926       .  S
O1792      C1802   1.283       .  A
O1793     Ni1798   1.911       .  S
O1793      C1802   1.280       .  A
O1794     Ni1798   1.916       .  S
O1794      C1801   1.280       .  A
O1795     Ni1798   1.918       .  S
O1795      C1800   1.280       .  A
O1796     Ni1798   1.913       .  S
O1796      C1799   1.283       .  A
Ni1797    Ni1798   2.383       .  S
C1799      C1981   1.482       .  S
C1800      C1869   1.475       .  S
C1801      C2029   1.495       .  S
C1802      C1821   1.495       .  S
O1803     Ni1811   1.927   1_565  S
O1804      C1814   1.278       .  A
O1805      C1815   1.285       .  A
O1806     Ni1811   1.937       .  S
O1807      C1816   1.277       .  A
O1808     Ni1812   1.906   1_565  S
O1809     Ni1812   1.921       .  S
O1810      C1813   1.281       .  A
C1813      C1994   1.498       .  S
C1814      C1914   1.476       .  S
C1815      C2074   1.479       .  S
C1816      C1837   1.479       .  S
C1817      C1818   1.417       .  A
C1817      C1822   1.399       .  A
C1817      H1824   1.079       .  S
C1818      C1819   1.431       .  A
C1819      C1826   1.511       .  S
C1819      C1820   1.411       .  A
C1820      C1821   1.406       .  A
C1820      H1825   1.083       .  S
C1821      C1822   1.417       .  A
C1822      C1823   1.512       .  S
C1823      H1827   1.111       .  S
C1823      H1828   1.109       .  S
C1823      H1829   1.111       .  S
C1826      H1830   1.104       .  S
C1826      H1831   1.109       .  S
C1826      H1832   1.111       .  S
C1833      C1834   1.427       .  A
C1833      C1838   1.401       .  A
C1833      H1840   1.077       .  S
C1834      C1835   1.448       .  A
C1835      C1842   1.514       .  S
C1835      C1836   1.412       .  A
C1836      C1837   1.396       .  A
C1836      H1841   1.085       .  S
C1837      C1838   1.400       .  A
C1839      H1843   1.111       .  S
C1839      H1845   1.110       .  S
C1842      H1846   1.102       .  S
C1842      H1847   1.100       .  S
C1842      H1848   1.111       .  S
C1849      C1850   1.415       .  A
C1849      C1854   1.406       .  A
C1849      H1856   1.078       .  S
C1850      C1851   1.427       .  A
C1851      C1858   1.510       .  S
C1851      C1852   1.412       .  A
C1852      C1853   1.420       .  A
C1852      H1857   1.075       .  S
C1853      C1854   1.434       .  A
C1854      C1855   1.515       .  S
C1855      H1859   1.104       .  S
C1855      H1860   1.104   1_556  S
C1855      H1861   1.111       .  S
C1858      H1862   1.107       .  S
C1858      H1863   1.101       .  S
C1858      H1864   1.110       .  S
C1865      C1866   1.425       .  A
C1865      C1870   1.406       .  A
C1865      H1872   1.083       .  S
C1866      C1867   1.456       .  A
C1867      C1874   1.521       .  S
C1867      C1868   1.405       .  A
C1868      C1869   1.388       .  A
C1868      H1873   1.087       .  S
C1869      C1870   1.403       .  A
C1870      C1871   1.507       .  S
C1871      H1875   1.111       .  S
C1871      H1876   1.110       .  S
C1871      H1877   1.111       .  S
C1874      H1878   1.110       .  S
C1874      H1879   1.111       .  S
C1874      H1880   1.095       .  S
C1881      C1886   1.421   1_455  A
C1883      C1890   1.515   1_554  S
C1884      C1885   1.407       .  A
C1884      H1889   1.075       .  S
C1886      C1887   1.512       .  S
C1887      H1891   1.110       .  S
C1887      H1892   1.104       .  S
C1887      H1893   1.107       .  S
C1890      H1894   1.098       .  S
C1890      H1895   1.111       .  S
C1890      H1896   1.100   1_556  S
C1897      C1902   1.401       .  A
C1897      H1904   1.075       .  S
C1898      C1899   1.437       .  A
C1899      C1906   1.509       .  S
C1899      C1900   1.412       .  A
C1900      H1905   1.077       .  S
C1901      C1902   1.433       .  A
C1902      C1903   1.518       .  S
C1903      H1907   1.107       .  S
C1903      H1908   1.103       .  S
C1903      H1909   1.111       .  S
C1906      H1910   1.110       .  S
C1906      H1911   1.100       .  S
C1906      H1912   1.103       .  S
C1913      C1914   1.388       .  A
C1913      C1918   1.399       .  A
C1914      C1915   1.407       .  A
C1915      C1922   1.505       .  S
C1915      C1916   1.410       .  A
C1916      C1917   1.422       .  A
C1916      H1921   1.079       .  S
C1917      C1918   1.445       .  A
C1919      H1923   1.103       .  S
C1919      H1925   1.111       .  S
C1922      H1926   1.110       .  S
C1922      H1927   1.110       .  S
C1922      H1928   1.111       .  S
C1929      C1930   1.409       .  A
C1929      C1934   1.400       .  A
C1929      H1936   1.067       .  S
C1930      C1931   1.445       .  A
C1931      C1938   1.515       .  S
C1931      C1932   1.421       .  A
C1932      C1933   1.414       .  A
C1932      H1937   1.084       .  S
C1933      C1934   1.434       .  A
C1934      C1935   1.509       .  S
C1935      H1939   1.110       .  S
C1935      H1940   1.110       .  S
C1935      H1941   1.087       .  S
C1938      H1942   1.099       .  S
C1938      H1943   1.109       .  S
C1938      H1944   1.110       .  S
C1945      C1946   1.410       .  A
C1945      C1950   1.389       .  A
C1945      H1952   1.076       .  S
C1947      C1954   1.513       .  S
C1947      C1948   1.418       .  A
C1948      C1949   1.414       .  A
C1948      H1953   1.084       .  S
C1950      C1951   1.516       .  S
C1951      H1955   1.112       .  S
C1951      H1956   1.106   1_655  S
C1951      H1957   1.106       .  S
C1954      H1958   1.111       .  S
C1954      H1959   1.104       .  S
C1954      H1960   1.103       .  S
C1961      C1962   1.414       .  A
C1961      C1966   1.406       .  A
C1961      H1968   1.085       .  S
C1962      C1963   1.429       .  A
C1963      C1970   1.517       .  S
C1963      C1964   1.401       .  A
C1964      C1965   1.419       .  A
C1964      H1969   1.076       .  S
C1965      C1966   1.444       .  A
C1966      C1967   1.511       .  S
C1967      H1972   1.087       .  S
C1970      H1974   1.109       .  S
C1970      H1975   1.084       .  S
C1970      H1976   1.111       .  S
C1977      C1978   1.417       .  A
C1977      C1982   1.410       .  A
C1977      H1984   1.077       .  S
C1978      C1979   1.436       .  A
C1979      C1986   1.507       .  S
C1979      C1980   1.396       .  A
C1980      C1981   1.394       .  A
C1980      H1985   1.086       .  S
C1981      C1982   1.414       .  A
C1982      C1983   1.506       .  S
C1983      H1987   1.111       .  S
C1983      H1988   1.110       .  S
C1983      H1989   1.110       .  S
C1986      H1990   1.108       .  S
C1986      H1991   1.097       .  S
C1986      H1992   1.111       .  S
C1993      C1994   1.408       .  A
C1993      C1998   1.413       .  A
C1994      C1995   1.414       .  A
C1995      C2002   1.512       .  S
C1995      C1996   1.401       .  A
C1996      C1997   1.418       .  A
C1996      H2001   1.063       .  S
C1997      C1998   1.427       .  A
C1998      C1999   1.504       .  S
C1999      H2004   1.106       .  S
C2002      H2006   1.110       .  S
C2002      H2007   1.110       .  S
C2002      H2008   1.111       .  S
C2009      C2010   1.413       .  A
C2009      C2014   1.399       .  A
C2009      H2016   1.072       .  S
C2010      C2011   1.430       .  A
C2011      C2018   1.507       .  S
C2011      C2012   1.409       .  A
C2012      C2013   1.413       .  A
C2012      H2017   1.076       .  S
C2013      C2014   1.431       .  A
C2014      C2015   1.516       .  S
C2015      H2019   1.110       .  S
C2015      H2020   1.094       .  S
C2015      H2021   1.111       .  S
C2018      H2022   1.103       .  S
C2018      H2023   1.104       .  S
C2018      H2024   1.110       .  S
C2025      C2026   1.422       .  A
C2025      C2030   1.399       .  A
C2025      H2032   1.072       .  S
C2026      C2027   1.441       .  A
C2027      C2034   1.516       .  S
C2027      C2028   1.409       .  A
C2028      C2029   1.406       .  A
C2028      H2033   1.084       .  S
C2029      C2030   1.411       .  A
C2030      C2031   1.512       .  S
C2031      H2035   1.103       .  S
C2031      H2036   1.111       .  S
C2031      H2037   1.109       .  S
C2034      H2038   1.110       .  S
C2034      H2039   1.104       .  S
C2034      H2040   1.109       .  S
C2041      H2048   1.064       .  S
C2042      C2043   1.442       .  A
C2043      C2050   1.518       .  S
C2044      H2049   1.071       .  S
C2045      C2046   1.429   1_655  A
C2046      C2047   1.517       .  S
C2047      H2052   1.109       .  S
C2047      H2053   1.097   1_455  S
C2050      H2054   1.108       .  S
C2050      H2055   1.097       .  S
C2057      C2058   1.420       .  A
C2057      C2062   1.417       .  A
C2057      H2064   1.082       .  S
C2059      C2066   1.516       .  S
C2059      C2060   1.394       .  A
C2060      C2061   1.410       .  A
C2060      H2065   1.071       .  S
C2062      C2063   1.513       .  S
C2063      H2067   1.111       .  S
C2063      H2068   1.103       .  S
C2063      H2069   1.105       .  S
C2066      H2070   1.101       .  S
C2066      H2071   1.103       .  S
C2066      H2072   1.112       .  S
C2073      C2074   1.392       .  A
C2073      C2078   1.409       .  A
C2073      H2080   1.084       .  S
C2074      C2075   1.403       .  A
C2075      C2076   1.405       .  A
C2076      C2077   1.425       .  A
C2077      C2078   1.448       .  A
C2078      C2079   1.509       .  S
C2079      H2083   1.112       .  S
C2079      H2084   1.108       .  S
C2079      H2085   1.096       .  S
C2082      H2086   1.110       .  S
C2082      H2087   1.110       .  S
C2082      H2088   1.111       .  S
C2089      C2090   1.397       .  A
C2089      C2094   1.390       .  A
C2089      H2096   1.068       .  S
C2090      C2091   1.441       .  A
C2091      C2098   1.508       .  S
C2091      C2092   1.412       .  A
C2092      C2093   1.406       .  A
C2092      H2097   1.082       .  S
C2093      C2094   1.438       .  A
C2094      C2095   1.530       .  S
C2095      H2099   1.107       .  S
C2095      H2100   1.109       .  S
C2095      H2101   1.100       .  S
C2098      H2102   1.111       .  S
C2098      H2103   1.103       .  S
C2098      H2104   1.106       .  S
C2105      C2110   1.424       .  A
C2105      H2112   1.079       .  S
C2106      C2107   1.435       .  A
C2107      C2114   1.512       .  S
C2107      C2108   1.398       .  A
C2108      H2113   1.080       .  S
C2109      C2110   1.449       .  A
C2110      C2111   1.513       .  S
C2111      H2115   1.111       .  S
C2111      H2116   1.110       .  S
C2111      H2117   1.096       .  S
C2114      H2118   1.110       .  S
C2114      H2119   1.087       .  S
C2114      H2120   1.110       .  S
C2121      C2122   1.423       .  A
C2121      C2126   1.415       .  A
C2121      H2128   1.074       .  S
C2122      C2123   1.432       .  A
C2123      C2130   1.491       .  S
C2123      C2124   1.404       .  A
C2124      C2125   1.405       .  A
C2124      H2129   1.079       .  S
C2125      C2126   1.430       .  A
C2126      C2127   1.513       .  S
C2127      H2131   1.111       .  S
C2127      H2132   1.111       .  S
C2127      H2133   1.102       .  S
C2130      H2134   1.101       .  S
C2130      H2135   1.102       .  S
C2130      H2136   1.111       .  S
