geometry optimzed in LAMMPS
_audit_creation_date              2020-11-30 
_audit_creation_method            'lammps2cif' 
_symmetry_space_group_name_H-M    'P1' 
_symmetry_Int_Tables_number       1 
_symmetry_cell_setting            triclinic 
loop_ 
_symmetry_equiv_pos_as_xyz 
  x,y,z 
_cell_length_a                    56.70719662 
_cell_length_b                    56.80189525680773 
_cell_length_c                    47.789415604189806 
_cell_angle_alpha                 89.20168068907711 
_cell_angle_beta                  89.94941636121314 
_cell_angle_gamma                 119.91163669115265 
loop_ 
_atom_site_label 
_atom_site_type_symbol 
_atom_site_fract_x 
_atom_site_fract_y 
_atom_site_fract_z 
_atom_site_charge 
C1          C  0.04043121  0.07843142  0.64332015     0.03200
C2          C  0.01999584  0.08112212  0.65740777    -0.13000
C3          C  0.02082939  0.08426687  0.68657624     0.00700
C4          C  0.04325388  0.08666332  0.70134904    -0.11500
C5          C  0.06354531  0.08362688  0.68797174     0.03200
C6          C  0.06196536  0.07943696  0.65902562    -0.10900
H7          H  0.00334140  0.08061717  0.64590660     0.08800
H8          H  0.04462880  0.09041162  0.72361586     0.06300
H9          H  0.07731398  0.07642422  0.64885243     0.06200
C10         C  0.03890769  0.40096820  0.63694926     0.03200
C11         C  0.01946680  0.37749360  0.65137926    -0.13000
C12         C  0.01826811  0.37637087  0.68074932     0.00700
C13         C  0.03796882  0.39849417  0.69580180    -0.11500
C14         C  0.05828009  0.42170724  0.68180218     0.03200
C15         C  0.05794319  0.42320363  0.65246539    -0.10900
H16         H  0.00533598  0.35986839  0.63970195     0.08800
H17         H  0.03725554  0.39785652  0.71846644     0.06300
H18         H  0.07287059  0.44159360  0.64179072     0.06200
C19         C  0.46402738  0.46791288  0.84905903     0.03200
C20         C  0.49239798  0.48288430  0.85206716    -0.13000
C21         C  0.00706239  0.46949825  0.85756996     0.00700
C22         C  0.49305350  0.44136082  0.86217406    -0.11500
C23         C  0.46514827  0.42601034  0.85704550     0.03200
C24         C  0.45059799  0.43946150  0.85108863    -0.10900
H25         H  0.00301657  0.00531584  0.84851690     0.08800
H26         H  0.00451640  0.43109495  0.86624023     0.06300
H27         H  0.42914405  0.42784486  0.84623622     0.06200
O28         O  0.33249085  0.04033018  0.75348445    -0.85300
O29         O  0.37195320  0.09237861  0.76388720    -0.82300
C30         C  0.39069273  0.11140893  0.77733053     0.98200
O31         O  0.40799443  0.10771263  0.79054372    -0.82400
O32         O  0.38297675  0.07354669  0.83656590    -0.85000
C33         C  0.36931251  0.05176048  0.85047663     1.02700
O34         O  0.36020650  0.02921012  0.83852477    -0.77800
O35         O  0.32506392  0.02737110  0.79769067    -0.78000
C36         C  0.31730291  0.03312563  0.77517657     1.02600
O37         O  0.37546560  0.02965859  0.73442890    -0.85300
O38         O  0.41342301  0.08281989  0.74084780    -0.82400
C39         C  0.43243118  0.08022637  0.75150465     0.98200
O40         O  0.43175572  0.07436571  0.77706938    -0.82400
O41         O  0.41073981  0.04418956  0.82403183    -0.85000
C42         C  0.40372155  0.02067546  0.81521843     1.02700
O43         O  0.38310658  0.00838001  0.79987547    -0.77800
O44         O  0.34328921  0.50063248  0.76186528    -0.78000
C45         C  0.35863892  0.00531259  0.74054062     1.02600
Cr46       Cr  0.37355371  0.06054421  0.75068681     1.93700
Cr47       Cr  0.40623453  0.07357724  0.80539734     1.93200
Cr48       Cr  0.35458224  0.01867485  0.79846355     1.39100
O49         O  0.37800645  0.05126959  0.78499823    -1.23000
O50         O  0.39406386  0.22684011  0.75601253    -0.85300
O51         O  0.34246906  0.21556942  0.76581075    -0.82300
C52         C  0.32288391  0.21546209  0.77826938     0.98200
O53         O  0.32570922  0.23706072  0.78881404    -0.82400
O54         O  0.35560214  0.24258999  0.83650782    -0.85000
C55         C  0.37589117  0.24833411  0.85170021     1.02700
O56         O  0.39969374  0.26134261  0.84142406    -0.77800
O57         O  0.40347984  0.22989346  0.80069129    -0.78000
C58         C  0.39849805  0.21711946  0.77816571     1.02600
O59         O  0.40695974  0.28083233  0.73688635    -0.85300
O60         O  0.35379048  0.26721188  0.74147653    -0.82400
C61         C  0.35712844  0.28927985  0.75123330     0.98200
O62         O  0.36246256  0.29437307  0.77673387    -0.82400
O63         O  0.38821264  0.29980303  0.82614475    -0.85000
C64         C  0.41313160  0.31535783  0.82021776     1.02700
O65         O  0.42562175  0.30722841  0.80486393    -0.77800
O66         O  0.43506060  0.27779855  0.76587045    -0.78000
C67         C  0.43093795  0.28799879  0.74397732     1.02600
Cr68       Cr  0.37487577  0.24852877  0.75247254     1.93700
Cr69       Cr  0.35948747  0.26784334  0.80548810     1.93200
Cr70       Cr  0.41369550  0.26840244  0.80200454     1.39100
O71         O  0.38257147  0.26145465  0.78675306    -1.23000
O72         O  0.22114535  0.09400983  0.76663087    -0.85300
O73         O  0.20755415  0.04228902  0.75379896    -0.82300
C74         C  0.21592201  0.03491489  0.77500198     0.98200
O75         O  0.20290428  0.02920249  0.79781791    -0.82400
O76         O  0.17138380  0.03179835  0.84004995    -0.85000
C77         C  0.18487087  0.05445625  0.85187414     1.02700
O78         O  0.19262760  0.07625963  0.83810833    -0.77800
O79         O  0.20068751  0.11031972  0.79228298    -0.78000
C80         C  0.22190485  0.11315526  0.78027468     1.02600
O81         O  0.17055749  0.08651452  0.74426717    -0.85300
O82         O  0.15432600  0.03341282  0.73624597    -0.82400
C83         C  0.14596762  0.00885174  0.74207405     0.98200
O84         O  0.15590070  0.50321485  0.76341608    -0.82400
O85         O  0.12658064  0.01135114  0.80319665    -0.85000
C86         C  0.11882420  0.02338899  0.81959416     1.02700
O87         O  0.13539436  0.04715519  0.82760899    -0.77800
O88         O  0.14325662  0.07671899  0.78024234    -0.78000
C89         C  0.14851533  0.08300901  0.75475924     1.02600
Cr90       Cr  0.18749163  0.06335969  0.75266978     1.93700
Cr91       Cr  0.16497409  0.02114977  0.80001001     1.93200
Cr92       Cr  0.16865860  0.07625218  0.80786190     1.39100
O93         O  0.17404204  0.05379529  0.78700772    -1.23000
C94         C  0.35893313  0.39645457  0.63739812     0.03200
C95         C  0.35813562  0.37473934  0.65280948    -0.13000
C96         C  0.35692087  0.37430518  0.68232415     0.00700
C97         C  0.35579123  0.39553836  0.69599020    -0.11500
C98         C  0.35793391  0.41780596  0.68085562     0.03200
C99         C  0.35980830  0.41828722  0.65168655    -0.10900
H100        H  0.35814231  0.35817268  0.64186077     0.08800
H101        H  0.35367662  0.39503153  0.71856031     0.06300
H102        H  0.36103800  0.43535841  0.63998994     0.06200
C103        C  0.20174829  0.41363323  0.30427108     0.03200
C104        C  0.22547386  0.41705772  0.31723984    -0.13000
C105        C  0.22908960  0.42127757  0.34611432     0.00700
C106        C  0.20929580  0.42310984  0.36198175    -0.11500
C107        C  0.18527365  0.41927804  0.34941525     0.03200
C108        C  0.18159975  0.41439382  0.32067084    -0.10900
H109        H  0.24109671  0.41617447  0.30499513     0.08800
H110        H  0.21212786  0.42643009  0.38429406     0.06300
H111        H  0.16252028  0.41017538  0.31133006     0.06200
C112        C  0.51176629  0.22470622  0.30735884     0.03200
C113        C  0.51291796  0.24688977  0.32139403    -0.13000
C114        C  0.51172514  0.24714136  0.35079078     0.00700
C115        C  0.51093416  0.22554308  0.36628838    -0.11500
C116        C  0.51062344  0.20360502  0.35273506     0.03200
C117        C  0.50997491  0.20291608  0.32336433    -0.10900
H118        H  0.51500059  0.26419763  0.30952777     0.08800
H119        H  0.51176189  0.22639164  0.38892285     0.06300
H120        H  0.50824318  0.18532714  0.31294525     0.06200
C121        C  0.12711854  0.30311056  0.51329618     0.03200
C122        C  0.15550985  0.31744877  0.51344127    -0.13000
C123        C  0.17012474  0.30399879  0.51856018     0.00700
C124        C  0.15586990  0.27610808  0.52521733    -0.11500
C125        C  0.12733621  0.26098757  0.52295127     0.03200
C126        C  0.11318839  0.27490407  0.51724321    -0.10900
H127        H  0.16617977  0.33878493  0.50750693     0.08800
H128        H  0.16717023  0.26587257  0.53010770     0.06300
H129        H  0.09143778  0.26386132  0.51416092     0.06200
O130        O  0.49795545  0.37764199  0.42125675    -0.85300
O131        O  0.03898704  0.42920153  0.42866733    -0.82300
C132        C  0.05848153  0.44878781  0.44065110     0.98200
O133        O  0.07687880  0.44567977  0.45233430    -0.82400
O134        O  0.05377295  0.41569892  0.50060194    -0.85000
C135        C  0.03936502  0.39563034  0.51639631     1.02700
O136        O  0.02795918  0.37172284  0.50704584    -0.77800
O137        O  0.49233071  0.36886309  0.46636096    -0.78000
C138        C  0.48403201  0.37328398  0.44354860     1.02600
O139        O  0.03849128  0.36379930  0.40258551    -0.85300
O140        O  0.07832053  0.41684964  0.40513427    -0.82400
C141        C  0.09734747  0.41402795  0.41539287     0.98200
O142        O  0.09725910  0.40873891  0.44095637    -0.82400
O143        O  0.07761906  0.38241745  0.48993569    -0.85000
C144        C  0.06860607  0.35802325  0.48272315     1.02700
O145        O  0.04669409  0.34554807  0.46949957    -0.77800
O146        O  0.00704767  0.33657320  0.43207025    -0.78000
C147        C  0.02116591  0.34007444  0.41020738     1.02600
Cr148      Cr  0.03880438  0.39631008  0.41688484     1.93700
Cr149      Cr  0.07418262  0.41166462  0.46948732     1.93200
Cr150      Cr  0.02014032  0.35795454  0.46764038     1.39100
O151        O  0.04432730  0.38889593  0.45148720    -1.23000
O152        O  0.04105346  0.05155614  0.43437635    -0.85300
O153        O  0.49925516  0.06192187  0.42744588    -0.82300
C154        C  0.48463158  0.05168552  0.44918724     0.98200
O155        O  0.49276938  0.06292538  0.47247531    -0.82400
O156        O  0.02836882  0.09160510  0.51436058    -0.85000
C157        C  0.04096026  0.07970232  0.52277031     1.02700
O158        O  0.05624247  0.07595103  0.50640269    -0.77800
O159        O  0.07982701  0.07335925  0.45638179    -0.78000
C160        C  0.06180726  0.05216199  0.44458757     1.02600
O161        O  0.07940389  0.10445369  0.41188990    -0.85300
O162        O  0.03880368  0.11676597  0.41057412    -0.82400
C163        C  0.02176183  0.12317662  0.41898496     0.98200
O164        O  0.00868814  0.11292407  0.44160293    -0.82400
O165        O  0.04739988  0.14021701  0.48167997    -0.85000
C166        C  0.06930100  0.14818732  0.49481099     1.02700
O167        O  0.07897372  0.13271053  0.49895482    -0.77800
O168        O  0.09809730  0.13081795  0.44754720    -0.78000
C169        C  0.09795084  0.12647544  0.42179593     1.02600
Cr170      Cr  0.03997077  0.08448465  0.42378900     1.93700
Cr171      Cr  0.02103563  0.10133570  0.47615208     1.93200
Cr172      Cr  0.07593830  0.10251673  0.47580425     1.39100
O173        O  0.04550796  0.09587694  0.45877671    -1.23000
O174        O  0.37315909  0.43831792  0.42159268    -0.85300
O175        O  0.38470766  0.39765271  0.42955362    -0.82300
C176        C  0.38439098  0.37761783  0.44143376     0.98200
O177        O  0.36296013  0.35924145  0.45328872    -0.82400
O178        O  0.35511374  0.38132960  0.50136382    -0.85000
C179        C  0.34836232  0.39493558  0.51673217     1.02700
O180        O  0.33522890  0.40561309  0.50654325    -0.77800
O181        O  0.36793521  0.44277253  0.46629802    -0.78000
C182        C  0.38161307  0.45174485  0.44396835     1.02600
O183        O  0.31967240  0.39773170  0.40165320    -0.85300
O184        O  0.33362553  0.35839741  0.40521377    -0.82400
C185        C  0.31163750  0.33895945  0.41496985     0.98200
O186        O  0.30583249  0.33803601  0.44051500    -0.82400
O187        O  0.29808509  0.35583448  0.48982548    -0.85000
C188        C  0.28223531  0.36476604  0.48388152     1.02700
O189        O  0.29038624  0.38648195  0.46982765    -0.77800
O190        O  0.32127505  0.42743769  0.43122209    -0.78000
C191        C  0.31242054  0.41439489  0.40879452     1.02600
Cr192      Cr  0.35173353  0.39759160  0.41710497     1.93700
Cr193      Cr  0.33121105  0.36088935  0.46971619     1.93200
Cr194      Cr  0.32946398  0.41397472  0.46716698     1.39100
O195        O  0.33765067  0.39085121  0.45143236    -1.23000
C196        C  0.20612726  0.22867465  0.30732548     0.03200
C197        C  0.18361308  0.20993433  0.32371321    -0.13000
C198        C  0.18425508  0.21044499  0.35304843     0.00700
C199        C  0.20727739  0.23103989  0.36622391    -0.11500
C200        C  0.22960139  0.25058104  0.35052547     0.03200
C201        C  0.22935740  0.24873716  0.32119338    -0.10900
H202        H  0.16519556  0.19488583  0.31371257     0.08800
H203        H  0.20801614  0.23190596  0.38886136     0.06300
H204        H  0.24715415  0.26318231  0.30944799     0.06200
C205        C  0.36626654  0.05274127  0.97155600     0.03200
C206        C  0.34485897  0.03101098  0.98616786    -0.13000
C207        C  0.34491462  0.02932269  0.01540292     0.00700
C208        C  0.36676799  0.04955689  0.03022057    -0.11500
C209        C  0.38865672  0.07130078  0.01604639     0.03200
C210        C  0.38821918  0.07275793  0.98659693    -0.10900
H211        H  0.32578330  0.51558321  0.97542476     0.08800
H212        H  0.36621553  0.04875959  0.05288535     0.06300
H213        H  0.40520961  0.08913507  0.97535710     0.06200
C214        C  0.36617121  0.23514793  0.97234832     0.03200
C215        C  0.38619093  0.23306259  0.98773106    -0.13000
C216        C  0.38587415  0.23291558  0.01702304     0.00700
C217        C  0.36442902  0.23358383  0.03102260    -0.11500
C218        C  0.34365024  0.23476172  0.01609084     0.03200
C219        C  0.34473288  0.23565264  0.98667225    -0.10900
H220        H  0.40205479  0.23141688  0.97684815     0.08800
H221        H  0.36405269  0.23349352  0.05370089     0.06300
H222        H  0.32894111  0.23669526  0.97493976     0.06200
C223        C  0.28826181  0.12437030  0.19263499     0.03200
C224        C  0.31646170  0.13759930  0.19685547    -0.13000
C225        C  0.33114017  0.12410531  0.19205479     0.00700
C226        C  0.31666829  0.09627343  0.18620292    -0.11500
C227        C  0.28813204  0.08174238  0.18606971     0.03200
C228        C  0.27404731  0.09610241  0.18923925    -0.10900
H229        H  0.32721278  0.15909238  0.20126817     0.08800
H230        H  0.32759356  0.08624248  0.17955244     0.06300
H231        H  0.25216594  0.08564285  0.18703739     0.06200
O232        O  0.04388962  0.24735995  0.09978207    -0.85300
O233        O  0.03184882  0.19512751  0.09127753    -0.82300
C234        C  0.04131923  0.19005235  0.11308298     0.98200
O235        O  0.02905097  0.18620907  0.13618017    -0.82400
O236        O  0.99941932  0.19282400  0.17817626    -0.85000
C237        C  0.01120988  0.21705065  0.18679638     1.02700
O238        O  0.01626572  0.23664050  0.17040852    -0.77800
O239        O  0.02189005  0.26468588  0.12083498    -0.78000
C240        C  0.04368171  0.26740764  0.11036971     1.02600
O241        O  0.99224164  0.23598357  0.07611818    -0.85300
O242        O  0.97838294  0.18314420  0.07382273    -0.82400
C243        C  0.47051784  0.15918197  0.08167573     0.98200
O244        O  0.47939317  0.15462943  0.10433988    -0.82400
O245        O  0.45172101  0.16544065  0.14486676    -0.85000
C246        C  0.44377334  0.17923377  0.15822876     1.02700
O247        O  0.45945622  0.20422453  0.16224819    -0.77800
O248        O  0.46422323  0.22693868  0.11113736    -0.78000
C249        C  0.46948945  0.23157178  0.08546353     1.02600
Cr250      Cr  0.01070609  0.21490741  0.08789671     1.93700
Cr251      Cr  0.49063025  0.17706880  0.13953945     1.93200
Cr252      Cr  0.49113438  0.23153818  0.13964237     1.39100
O253        O  0.99764915  0.20785271  0.12259835    -1.23000
O254        O  0.21885596  0.38190655  0.09000845    -0.85300
O255        O  0.16643913  0.36924411  0.09855142    -0.82300
C256        C  0.14613243  0.36889320  0.10956925     0.98200
O257        O  0.14851744  0.39012244  0.12074226    -0.82400
O258        O  0.17734673  0.39721298  0.16950258    -0.85000
C259        C  0.19733073  0.40311890  0.18515886     1.02700
O260        O  0.22138491  0.41520396  0.17558270    -0.77800
O261        O  0.22683371  0.38420218  0.13498268    -0.78000
C262        C  0.22315690  0.37209600  0.11212738     1.02600
O263        O  0.23066291  0.43539364  0.07128716    -0.85300
O264        O  0.17719209  0.42033649  0.07395605    -0.82400
C265        C  0.18071746  0.44258608  0.08319342     0.98200
O266        O  0.18517657  0.44773832  0.10868458    -0.82400
O267        O  0.20932942  0.45427258  0.15825983    -0.85000
C268        C  0.23430215  0.46989994  0.15282996     1.02700
O269        O  0.24805831  0.46158890  0.13984045    -0.77800
O270        O  0.25849632  0.43265500  0.10096499    -0.78000
C271        C  0.25451650  0.44283524  0.07896475     1.02600
Cr272      Cr  0.19879674  0.40261254  0.08598445     1.93700
Cr273      Cr  0.18161655  0.42162648  0.13784578     1.93200
Cr274      Cr  0.23639200  0.42266086  0.13660989     1.39100
O275        O  0.20547490  0.41542986  0.12038607    -1.23000
O276        O  0.15868806  0.19609979  0.09051831    -0.85300
O277        O  0.19931474  0.24864989  0.09811189    -0.82300
C278        C  0.21940037  0.26837364  0.10934162     0.98200
O279        O  0.23789869  0.26526404  0.12069239    -0.82400
O280        O  0.21572132  0.23617235  0.17005366    -0.85000
C281        C  0.20143746  0.21608856  0.18606383     1.02700
O282        O  0.18983068  0.19227484  0.17643793    -0.77800
O283        O  0.15337246  0.18678029  0.13541923    -0.78000
C284        C  0.14443286  0.19060336  0.11270957     1.02600
O285        O  0.20026896  0.18383628  0.07191043    -0.85300
O286        O  0.23916721  0.23693631  0.07419025    -0.82400
C287        C  0.25794239  0.23325519  0.08365097     0.98200
O288        O  0.25862401  0.22854772  0.10932572    -0.82400
O289        O  0.24068997  0.20413669  0.15989902    -0.85000
C290        C  0.23115259  0.17910394  0.15564688     1.02700
O291        O  0.20965367  0.16565585  0.14189699    -0.77800
O292        O  0.17060121  0.15546904  0.10234258    -0.78000
C293        C  0.18444005  0.15984065  0.08006874     1.02600
Cr294      Cr  0.19971610  0.21578869  0.08634960     1.93700
Cr295      Cr  0.23595737  0.23197450  0.13843987     1.93200
Cr296      Cr  0.18245721  0.17744861  0.13763816     1.39100
O297        O  0.20594323  0.20852352  0.12098883    -1.23000
C298        C  0.18616382  0.05321468  0.97267466     0.03200
C299        C  0.18479945  0.03105281  0.98746358    -0.13000
C300        C  0.18227936  0.02932581  0.01663889     0.00700
C301        C  0.18102375  0.05003496  0.03114913    -0.11500
C302        C  0.18299847  0.07267280  0.01674201     0.03200
C303        C  0.18554364  0.07410325  0.98741407    -0.10900
H304        H  0.18571017  0.51457417  0.97730647     0.08800
H305        H  0.17905205  0.04879011  0.05375631     0.06300
H306        H  0.18629514  0.09109038  0.97600614     0.06200
C307        C  0.18275712  0.13712661  0.06341324    -0.05400
C308        C  0.20292308  0.14288836  0.04298845    -0.32800
C309        C  0.20318128  0.12216345  0.02780827     0.36400
C310        C  0.18280555  0.09495910  0.03243942    -0.05800
C311        C  0.16257643  0.08905170  0.05275597    -0.32700
C312        C  0.16238797  0.10982806  0.06813497     0.36300
H313        H  0.21910382  0.16357169  0.03916414     0.16700
O314        O  0.22394595  0.12870044  0.00903082    -0.60200
H315        H  0.14675682  0.06822128  0.05662577     0.16700
O316        O  0.14232698  0.10311276  0.08781992    -0.60300
H317        H  0.12749417  0.10397723  0.07773342     0.43700
H318        H  0.23777050  0.12645206  0.01958003     0.43700
C319        C  0.22368592  0.34627885  0.11097214    -0.05400
C320        C  0.21061774  0.32841591  0.08887577    -0.32800
C321        C  0.20933344  0.30319539  0.08789464     0.36400
C322        C  0.22145150  0.29540901  0.10913465    -0.05800
C323        C  0.23509688  0.31350365  0.13086512    -0.32700
C324        C  0.23614809  0.33863863  0.13201006     0.36300
H325        H  0.20080156  0.33373736  0.07251934     0.16700
O326        O  0.19605890  0.28630291  0.06609305    -0.64400
H327        H  0.24447021  0.30789054  0.14743915     0.16700
O328        O  0.24916833  0.35538312  0.15397960    -0.60300
H329        H  0.26827351  0.36699728  0.14758054     0.43700
H330        H  0.21038099  0.29039278  0.05184673     0.43700
C331        C  0.18222767  0.50650664  0.03318825    -0.05400
C332        C  0.16355052  0.47932594  0.02677956    -0.32800
C333        C  0.16293739  0.45790372  0.04241423     0.36400
C334        C  0.18124128  0.46370357  0.06457076    -0.05800
C335        C  0.20068761  0.49080073  0.06987688    -0.32700
C336        C  0.20056670  0.01179656  0.05404884     0.36300
H337        H  0.14903085  0.47476957  0.01011018     0.16700
O338        O  0.14408594  0.43159429  0.03633034    -0.60200
H339        H  0.21482679  0.99490410  0.08529291     0.16700
O340        O  0.21915535  0.03791358  0.06116545    -0.60300
H341        H  0.23502313  0.04323856  0.04861496     0.43700
H342        H  0.12807389  0.42719826  0.04830865     0.43700
C343        C  0.06685213  0.18854095  0.11178538    -0.05400
C344        C  0.07572937  0.18103922  0.13599517    -0.32800
C345        C  0.10033493  0.18089270  0.13634781     0.36400
C346        C  0.11714496  0.18862914  0.11218760    -0.05800
C347        C  0.10795081  0.19540894  0.08767571    -0.32700
C348        C  0.08318347  0.19546903  0.08732351     0.36300
H349        H  0.06367110  0.17547004  0.15507067     0.16700
O350        O  0.10790265  0.17366397  0.16079659    -0.60200
H351        H  0.12024670  0.20125155  0.06875773     0.16700
O352        O  0.07538583  0.20260487  0.06296879    -0.60300
H353        H  0.08411548  0.22268674  0.06331331     0.43700
H354        H  0.10011026  0.15371300  0.15984367     0.43700
C355        C  0.06911594  0.29409630  0.10972037    -0.05400
C356        C  0.09085852  0.29722082  0.09294745    -0.32800
C357        C  0.11564035  0.32145452  0.09232726     0.36400
C358        C  0.11942196  0.34345532  0.10892156    -0.05800
C359        C  0.09756112  0.34057845  0.12541866    -0.32700
C360        C  0.07262069  0.31613371  0.12602248     0.36300
H361        H  0.08877851  0.28071244  0.08012697     0.16700
O362        O  0.13608686  0.32313829  0.07553695    -0.60200
H363        H  0.09993467  0.35711302  0.13836950     0.16700
O364        O  0.05207019  0.31395672  0.14296219    -0.60300
H365        H  0.05470864  0.30710396  0.16121736     0.43700
H366        H  0.13360030  0.32989079  0.05715193     0.43700
C367        C  0.24572169  0.16585834  0.16687530    -0.05400
C368        C  0.27265404  0.17572966  0.15847935    -0.32800
C369        C  0.28696197  0.16296615  0.16743266     0.36400
C370        C  0.27461327  0.14037716  0.18612374    -0.05800
C371        C  0.24785997  0.13131513  0.19554088    -0.32700
C372        C  0.23331028  0.14372019  0.18575426     0.36300
H373        H  0.28235499  0.19283979  0.14399607     0.16700
O374        O  0.31210374  0.17131440  0.15582172    -0.60200
H375        H  0.23800355  0.11419617  0.20998969     0.16700
O376        O  0.20727743  0.13453943  0.19523812    -0.60300
H377        H  0.19543095  0.12009350  0.18211312     0.43700
H378        H  0.32440390  0.18922466  0.16415747     0.43700
C379        C  0.24771872  0.99828637  0.16024455    -0.05400
C380        C  0.26990252  0.00783560  0.17832467    -0.32800
C381        C  0.28245865  0.03453776  0.18802074     0.36400
C382        C  0.27352402  0.05248360  0.17855166    -0.05800
C383        C  0.25103431  0.04252411  0.16058612    -0.32700
C384        C  0.23769600  0.01550139  0.15221066     0.36300
H385        H  0.27710673  0.99435490  0.18546601     0.16700
O386        O  0.30258328  0.04253303  0.20765618    -0.60200
H387        H  0.24388482  0.05572528  0.15249962     0.16700
O388        O  0.21541538  0.00637735  0.13532581    -0.60300
H389        H  0.19974886  0.00072350  0.14825709     0.43700
H390        H  0.31798594  0.04226007  0.19810895     0.43700
C391        C  0.41592732  0.16636348  0.16943856    -0.05400
C392        C  0.40499634  0.14164992  0.18425636    -0.32800
C393        C  0.37797620  0.12861204  0.19392157     0.36400
C394        C  0.36118491  0.13979949  0.18759040    -0.05800
C395        C  0.37285907  0.16527188  0.17381862    -0.32700
C396        C  0.40008908  0.17880171  0.16546541     0.36300
H397        H  0.41749280  0.13254059  0.18852015     0.16700
O398        O  0.36836659  0.10541965  0.21012339    -0.60200
H399        H  0.36071278  0.17442558  0.16828837     0.16700
O400        O  0.41052299  0.20340991  0.15176127    -0.60300
H401        H  0.41665825  0.21706939  0.16675921     0.43700
H402        H  0.36938780  0.09181579  0.19815342     0.43700
C403        C  0.32053774  0.23405222  0.03165806    -0.05400
C404        C  0.30752344  0.21427363  0.05279328    -0.32800
C405        C  0.28681570  0.21367016  0.06913991     0.36400
C406        C  0.27876469  0.23326013  0.06489930    -0.05800
C407        C  0.29094671  0.25250478  0.04308842    -0.32700
C408        C  0.31178431  0.25304489  0.02652033     0.36300
H409        H  0.31347774  0.19912282  0.05668621     0.16700
O410        O  0.27441289  0.19362139  0.08921553    -0.60200
H411        H  0.28491759  0.26762610  0.03945510     0.16700
O412        O  0.32455958  0.27316814  0.00658782    -0.60300
H413        H  0.31163270  0.26780909  0.99080781     0.43700
H414        H  0.25773740  0.17922644  0.08029629     0.43700
C415        C  0.40778290  0.23189421  0.03315832    -0.05400
C416        C  0.40071559  0.21325150  0.05548878    -0.32800
C417        C  0.42072646  0.21262108  0.07198264     0.36400
C418        C  0.44852210  0.23116644  0.06670786    -0.05800
C419        C  0.45575846  0.24906822  0.04365820    -0.32700
C420        C  0.43563753  0.24966498  0.02703598     0.36300
H421        H  0.37951006  0.19897644  0.06011476     0.16700
O422        O  0.41283676  0.19351204  0.09310388    -0.60200
H423        H  0.47699933  0.26319355  0.03905821     0.16700
O424        O  0.44344595  0.26823671  0.00540089    -0.60300
H425        H  0.44309678  0.28411921  0.01328193     0.43700
H426        H  0.41394367  0.17812900  0.08494401     0.43700
C427        C  0.27750312  0.46383136  0.06216403    -0.05400
C428        C  0.27222025  0.47902527  0.04220571    -0.32800
C429        C  0.29491051  0.99923651  0.02466620     0.36400
C430        C  0.32198961  0.00647810  0.03052264    -0.05800
C431        C  0.32572641  0.49113983  0.05097532    -0.32700
C432        C  0.30460086  0.47005602  0.06645367     0.36300
H433        H  0.25166981  0.47508239  0.03887707     0.16700
O434        O  0.28914139  0.01389129  0.00556182    -0.60200
H435        H  0.34645492  0.49567696  0.05441248     0.16700
O436        O  0.31068765  0.45554557  0.08539216    -0.60300
H437        H  0.31606037  0.46647282  0.10264344     0.43700
H438        H  0.28085507  0.00170999  0.98944471     0.43700
C439        C  0.45079345  0.13660219  0.06399661    -0.05400
C440        C  0.44209879  0.10948787  0.07160914    -0.32800
C441        C  0.42258529  0.08799895  0.05578462     0.36400
C442        C  0.41101384  0.09336820  0.03208337    -0.05800
C443        C  0.42013029  0.12041204  0.02417437    -0.32700
C444        C  0.43969875  0.14184977  0.03973348     0.36300
H445        H  0.45034551  0.10485567  0.08995284     0.16700
O446        O  0.41504151  0.06186139  0.06370661    -0.60200
H447        H  0.41145149  0.12508189  0.00621089     0.16700
O448        O  0.44763001  0.16787366  0.03093337    -0.60300
H449        H  0.43354025  0.17169580  0.03829358     0.43700
H450        H  0.42666958  0.05708354  0.05238302     0.43700
C451        C  0.20492662  0.22642096  0.27599224    -0.05400
C452        C  0.19049102  0.20050019  0.26415115    -0.32800
C453        C  0.18766644  0.19708233  0.23524171     0.36400
C454        C  0.20051437  0.21976493  0.21682440    -0.05800
C455        C  0.21494440  0.24578234  0.22842923    -0.32700
C456        C  0.21708464  0.24927986  0.25761317     0.36300
H457        H  0.18142920  0.18240675  0.27733345     0.16700
O458        O  0.17294125  0.17116136  0.22536575    -0.60200
H459        H  0.22492938  0.26358740  0.21486375     0.16700
O460        O  0.23021677  0.27516934  0.26777743    -0.60300
H461        H  0.24974180  0.28252752  0.26316588     0.43700
H462        H  0.15406106  0.16774166  0.22365747     0.43700
C463        C  0.29170176  0.31757583  0.39656066    -0.05400
C464        C  0.29900386  0.30215986  0.37960607    -0.32800
C465        C  0.27918192  0.28049736  0.36390897     0.36400
C466        C  0.25177407  0.27417405  0.36510142    -0.05800
C467        C  0.24487925  0.29032005  0.38123515    -0.32700
C468        C  0.26450404  0.31179036  0.39687664     0.36300
H469        H  0.31985624  0.30637056  0.37921543     0.16700
O470        O  0.28647436  0.26476334  0.34875948    -0.60200
H471        H  0.22402893  0.28614686  0.38182368     0.16700
O472        O  0.25725377  0.32784549  0.41161096    -0.60300
H473        H  0.24275715  0.31547255  0.42487955     0.43700
H474        H  0.29431607  0.27505252  0.33103358     0.43700
C475        C  0.40745622  0.47827781  0.44425550    -0.05400
C476        C  0.41329714  0.49523135  0.46745481    -0.32800
C477        C  0.43775977  0.01882617  0.46834854     0.36400
C478        C  0.45773604  0.02653466  0.44715730    -0.05800
C479        C  0.45164121  0.51114266  0.42427099    -0.32700
C480        C  0.42697178  0.48655410  0.42248659     0.36300
H481        H  0.39870480  0.48950135  0.48445856     0.16700
O482        O  0.44204382  0.03494379  0.49106728    -0.60200
H483        H  0.46647462  0.51677575  0.40752185     0.16700
O484        O  0.42279344  0.47024566  0.39997709    -0.60300
H485        H  0.41567723  0.47727898  0.38506862     0.43700
H486        H  0.44798544  0.02699637  0.50621076     0.43700
C487        C  0.16109017  0.18906755  0.36987129    -0.05400
C488        C  0.14974305  0.16154675  0.36283381    -0.32800
C489        C  0.12887143  0.14092052  0.37915489     0.36400
C490        C  0.11938535  0.14754943  0.40338194    -0.05800
C491        C  0.13022241  0.17506249  0.40998625    -0.32700
C492        C  0.15053341  0.19568226  0.39331059     0.36300
H493        H  0.15747936  0.15593416  0.34491574     0.16700
O494        O  0.11884016  0.11432937  0.37197389    -0.60200
H495        H  0.12254103  0.18067988  0.42793777     0.16700
O496        O  0.15965685  0.22225154  0.39996639    -0.60300
H497        H  0.14851285  0.22774731  0.38861816     0.43700
H498        H  0.10500764  0.11078848  0.35747042     0.43700
C499        C  0.45787478  0.37320958  0.44279556    -0.05400
C500        C  0.45185928  0.38461088  0.41952754    -0.32800
C501        C  0.42791231  0.38594214  0.41870845     0.36400
C502        C  0.40928424  0.37553479  0.44128605    -0.05800
C503        C  0.41493597  0.36365315  0.46429480    -0.32700
C504        C  0.43912152  0.36275827  0.46539113     0.36300
H505        H  0.46596650  0.39295815  0.40202493     0.16700
O506        O  0.42292281  0.39742939  0.39567723    -0.60200
H507        H  0.40088359  0.35566680  0.48188122     0.16700
O508        O  0.44399359  0.35133991  0.48855569    -0.60300
H509        H  0.45172452  0.36598497  0.50255252     0.43700
H510        H  0.41165482  0.38202671  0.38325777     0.43700
C511        C  0.05953967  0.47547530  0.44075849    -0.05400
C512        C  0.08159673  0.49822632  0.45287151    -0.32800
C513        C  0.08141473  0.02259816  0.46009894     0.36400
C514        C  0.06488228  0.02788422  0.44199783    -0.05800
C515        C  0.04973215  0.00882515  0.42156823    -0.32700
C516        C  0.03809835  0.47836787  0.42935978     0.36300
H517        H  0.09828752  0.49659986  0.46180279     0.16700
O518        O  0.09666390  0.04074825  0.48027709    -0.60200
H519        H  0.03751391  0.01274543  0.40685301     0.16700
O520        O  0.01600773  0.45701068  0.41720039    -0.60300
H521        H  0.00222165  0.44853251  0.43239649     0.43700
H522        H  0.11790865  0.55355239  0.45116162     0.43700
C523        C  0.11310073  0.23086672  0.52067848    -0.05400
C524        C  0.12633072  0.21907629  0.50654599    -0.32800
C525        C  0.11241811  0.19180833  0.49940307     0.36400
C526        C  0.08444513  0.17597282  0.50509233    -0.05800
C527        C  0.07127128  0.18693423  0.52041533    -0.32700
C528        C  0.08554157  0.21409034  0.52881408     0.36300
H529        H  0.14724061  0.23120065  0.49956234     0.16700
O530        O  0.12593787  0.18135066  0.48495870    -0.60200
H531        H  0.04994472  0.17441482  0.52594178     0.16700
O532        O  0.07268110  0.22386074  0.54545392    -0.60300
H533        H  0.05700166  0.22200537  0.53449400     0.43700
H534        H  0.13442137  0.17544019  0.49952010     0.43700
C535        C  0.19975859  0.31846504  0.51252854    -0.05400
C536        C  0.21605203  0.34558370  0.52080590    -0.32800
C537        C  0.24291961  0.36115126  0.51121571     0.36400
C538        C  0.25407735  0.34935537  0.49392750    -0.05800
C539        C  0.23844936  0.32201490  0.48683075    -0.32700
C540        C  0.21130237  0.30669648  0.49540514     0.36300
H541        H  0.20768173  0.35494659  0.53412576     0.16700
O542        O  0.25835667  0.38756357  0.51949300    -0.60200
H543        H  0.24710869  0.31272207  0.47382357     0.16700
O544        O  0.19572405  0.28107239  0.48502639    -0.60300
H545        H  0.20174737  0.26961801  0.49507723     0.43700
H546        H  0.25382234  0.39831002  0.50628158     0.43700
C547        C  0.11216434  0.31723489  0.50572669    -0.05400
C548        C  0.09327680  0.30725317  0.48394951    -0.32800
C549        C  0.07908016  0.32041403  0.47609074     0.36400
C550        C  0.08350660  0.34386593  0.49034008    -0.05800
C551        C  0.10262504  0.35396790  0.51195519    -0.32700
C552        C  0.11697095  0.34086001  0.51964418     0.36300
H553        H  0.08982712  0.28940271  0.47266819     0.16700
O554        O  0.06113413  0.31025932  0.45431945    -0.60200
H555        H  0.10626893  0.37189986  0.52319233     0.16700
O556        O  0.13480202  0.35058186  0.54153836    -0.60300
H557        H  0.15109140  0.36703570  0.53404844     0.43700
H558        H  0.07197884  0.31967489  0.43730936     0.43700
C559        C  0.51249653  0.18214922  0.36915916    -0.05400
C560        C  0.49625140  0.17047886  0.39320938    -0.32800
C561        C  0.49864965  0.15105356  0.40956183     0.36400
C562        C  0.01742068  0.14278754  0.40190029    -0.05800
C563        C  0.03349516  0.15445289  0.37772443    -0.32700
C564        C  0.03119668  0.17386800  0.36152387     0.36300
H565        H  0.48166470  0.17650376  0.39940953     0.16700
O566        O  0.48245120  0.14031978  0.43290059    -0.60200
H567        H  0.04846704  0.14896109  0.37146462     0.16700
O568        O  0.04864970  0.18591908  0.33923523    -0.60300
H569        H  0.04242808  0.17181419  0.32468160     0.43700
H570        H  0.49237754  0.15323732  0.44806206     0.43700
C571        C  0.51297629  0.27077295  0.36529627    -0.05400
C572        C  0.03249043  0.29721953  0.35696195    -0.32800
C573        C  0.03501022  0.31986357  0.37088899     0.36400
C574        C  0.01765972  0.31645049  0.39376947    -0.05800
C575        C  0.49767690  0.28993114  0.40168860    -0.32700
C576        C  0.49516050  0.26728482  0.38762323     0.36300
H577        H  0.04643704  0.30041031  0.33991425     0.16700
O578        O  0.05476089  0.34521126  0.36198532    -0.60200
H579        H  0.48400477  0.28663710  0.41903746     0.16700
O580        O  0.47511826  0.24182578  0.39583341    -0.60300
H581        H  0.45929291  0.23790553  0.38393421     0.43700
H582        H  0.07143805  0.34872028  0.37212344     0.43700
C583        C  0.01474627  0.22179937  0.21708136    -0.05400
C584        C  0.50095856  0.23351393  0.22993843    -0.32800
C585        C  0.49945748  0.23425669  0.25909322     0.36400
C586        C  0.51311445  0.22437868  0.27611199    -0.05800
C587        C  0.02768689  0.21340395  0.26297140    -0.32700
C588        C  0.02807677  0.21156989  0.23374928     0.36300
H589        H  0.48981144  0.24062918  0.21731524     0.16700
O590        O  0.48335499  0.24336326  0.27058045    -0.60200
H591        H  0.03860375  0.20588614  0.27534836     0.16700
O592        O  0.04110247  0.19933420  0.22173143    -0.60300
H593        H  0.05964733  0.21436212  0.21706068     0.43700
H594        H  0.46546245  0.22681986  0.27399769     0.43700
C595        C  0.25200749  0.42078618  0.36024053    -0.05400
C596        C  0.27076390  0.44308896  0.37575762    -0.32800
C597        C  0.29120522  0.44178058  0.39108042     0.36400
C598        C  0.29287902  0.41781842  0.39111775    -0.05800
C599        C  0.27450663  0.39588190  0.37486963    -0.32700
C600        C  0.25424528  0.39723479  0.35955398     0.36300
H601        H  0.26939648  0.46143943  0.37615014     0.16700
O602        O  0.30977980  0.46417497  0.40534238    -0.60200
H603        H  0.27521622  0.37716607  0.37476045     0.16700
O604        O  0.23558486  0.37476932  0.34541996    -0.60300
H605        H  0.24458006  0.37530989  0.32742703     0.43700
H606        H  0.30046711  0.46391254  0.42301454     0.43700
C607        C  0.11973379  0.41601425  0.39786472    -0.05400
C608        C  0.13171304  0.40046865  0.40582656    -0.32800
C609        C  0.15310096  0.40153051  0.39035550     0.36400
C610        C  0.16308234  0.41848554  0.36645389    -0.05800
C611        C  0.15091164  0.43380028  0.35814943    -0.32700
C612        C  0.12935900  0.43266069  0.37368522     0.36300
H613        H  0.12412485  0.38695475  0.42394481     0.16700
O614        O  0.16304372  0.38471462  0.39779245    -0.60200
H615        H  0.15827030  0.44679505  0.33965435     0.16700
O616        O  0.11810539  0.44803584  0.36521754    -0.60300
H617        H  0.12848740  0.46547030  0.37512470     0.43700
H618        H  0.17369883  0.39254068  0.41502176     0.43700
C619        C  0.19355558  0.40084158  0.21553169    -0.05400
C620        C  0.18465126  0.41719473  0.22808079    -0.32800
C621        C  0.18699485  0.42141218  0.25691090     0.36400
C622        C  0.19768787  0.40843752  0.27380819    -0.05800
C623        C  0.20540968  0.39100127  0.26120673    -0.32700
C624        C  0.20397196  0.38767288  0.23218295     0.36300
H625        H  0.17772299  0.42838889  0.21520546     0.16700
O626        O  0.18121330  0.44018692  0.26790746    -0.60200
H627        H  0.21325102  0.38046341  0.27378747     0.16700
O628        O  0.21304368  0.37179746  0.22021796    -0.60300
H629        H  0.23291119  0.38391917  0.21751441     0.43700
H630        H  0.16117125  0.43192628  0.26671058     0.43700
C631        C  0.35674696  0.39584980  0.60644707    -0.05400
C632        C  0.37531926  0.39282929  0.58949095    -0.32800
C633        C  0.37336705  0.39291150  0.56011487     0.36400
C634        C  0.35270088  0.39617794  0.54741820    -0.05800
C635        C  0.33425455  0.39916274  0.56457490    -0.32700
C636        C  0.33609018  0.39896013  0.59366822     0.36300
H637        H  0.39150454  0.39071702  0.59902885     0.16700
O638        O  0.39221259  0.39069414  0.54408470    -0.60200
H639        H  0.31773874  0.40099223  0.55544661     0.16700
O640        O  0.31673126  0.40049413  0.60956417    -0.60300
H641        H  0.32104675  0.41966751  0.60791675     0.43700
H642        H  0.38542675  0.37091513  0.54298970     0.43700
C643        C  0.18763757  0.05444464  0.88264618    -0.05400
C644        C  0.16817494  0.03151219  0.89779281    -0.32800
C645        C  0.16751051  0.03114834  0.92689921     0.36400
C646        C  0.18693928  0.05370530  0.94172496    -0.05800
C647        C  0.20673214  0.07662862  0.92679909    -0.32700
C648        C  0.20718792  0.07710941  0.89739896     0.36300
H649        H  0.15250774  0.01402337  0.88705119     0.16700
O650        O  0.14748909  0.50780063  0.94096447    -0.60200
H651        H  0.22185753  0.09412397  0.93797216     0.16700
O652        O  0.22660623  0.09980162  0.88340998    -0.60300
H653        H  0.24143344  0.09590976  0.87914817     0.43700
H654        H  0.13258592  0.51188391  0.94388840     0.43700
C655        C  0.24772043  0.13927364  0.78137673    -0.05400
C656        C  0.24758809  0.16347313  0.78679056    -0.32800
C657        C  0.27185347  0.18854817  0.78628150     0.36400
C658        C  0.29671414  0.18964101  0.78015308    -0.05800
C659        C  0.29679367  0.16530523  0.77557306    -0.32700
C660        C  0.27275562  0.14038101  0.77631009     0.36300
H661        H  0.22857314  0.16305968  0.79077371     0.16700
O662        O  0.27081630  0.21183598  0.79056749    -0.60200
H663        H  0.31567914  0.16548157  0.77143381     0.16700
O664        O  0.27407248  0.11723590  0.77190390    -0.60300
H665        H  0.27523150  0.11051527  0.79083248     0.43700
H666        H  0.27158006  0.21400698  0.81115907     0.43700
C667        C  0.37274659  0.24292194  0.88230715    -0.05400
C668        C  0.39535637  0.25844244  0.89929848    -0.32800
C669        C  0.39333409  0.25612434  0.92839951     0.36400
C670        C  0.36839065  0.23769677  0.94135273    -0.05800
C671        C  0.34567409  0.22197669  0.92450011    -0.32700
C672        C  0.34765098  0.22461247  0.89518170     0.36300
H673        H  0.41469547  0.27329183  0.89008556     0.16700
O674        O  0.41545238  0.27327070  0.94406134    -0.60200
H675        H  0.32635535  0.20758916  0.93408439     0.16700
O676        O  0.32510832  0.20892792  0.87940383    -0.60300
H677        H  0.31477661  0.21878206  0.87896926     0.43700
H678        H  0.42886695  0.26709106  0.94149762     0.43700
C679        C  0.35619722  0.31013133  0.73294071    -0.05400
C680        C  0.37266733  0.33752237  0.73991742    -0.32800
C681        C  0.37359319  0.35830787  0.72321096     0.36400
C682        C  0.35716309  0.35213183  0.69922787    -0.05800
C683        C  0.34081076  0.32468640  0.69194118    -0.32700
C684        C  0.34033226  0.30376263  0.70853204     0.36300
H685        H  0.38556878  0.34299971  0.75817652     0.16700
O686        O  0.39113127  0.38471391  0.73034483    -0.60200
H687        H  0.32801283  0.31940671  0.67363675     0.16700
O688        O  0.32404084  0.27726674  0.70091573    -0.60300
H689        H  0.30627856  0.27134258  0.71024425     0.43700
H690        H  0.40798602  0.39014009  0.71938829     0.43700
C691        C  0.39283167  0.13852404  0.77720648    -0.05400
C692        C  0.40757104  0.15704534  0.79826464    -0.32800
C693        C  0.40972449  0.18268834  0.79883439     0.36400
C694        C  0.39753919  0.19056013  0.77769289    -0.05800
C695        C  0.38302353  0.17213447  0.75649764    -0.32700
C696        C  0.38051024  0.14635521  0.75617054     0.36300
H697        H  0.41719875  0.15152776  0.81465042     0.16700
O698        O  0.42430349  0.20006757  0.81985199    -0.60200
H699        H  0.37314741  0.17753164  0.74027391     0.16700
O700        O  0.36596371  0.12905262  0.73509389    -0.60300
H701        H  0.37950270  0.13257779  0.72011613     0.43700
H702        H  0.41152178  0.19453217  0.83599083     0.43700
C703        C  0.29035147  0.03153590  0.77406991    -0.05400
C704        C  0.28474591  0.04479084  0.75220373    -0.32800
C705        C  0.26034243  0.04540848  0.75167180     0.36400
C706        C  0.24090878  0.03268457  0.77333270    -0.05800
C707        C  0.24614411  0.01866877  0.79468601    -0.32700
C708        C  0.27049975  0.01804232  0.79523570     0.36300
H709        H  0.29967299  0.05543603  0.73577413     0.16700
O710        O  0.25559908  0.55845318  0.72959129    -0.60200
H711        H  0.23141771  0.00835166  0.81136680     0.16700
O712        O  0.27444869  0.00384458  0.81641838    -0.60300
H713        H  0.28033485  0.01608660  0.83269408     0.43700
H714        H  0.24714218  0.54487993  0.71461991     0.43700
C715        C  0.36617060  0.05311084  0.94051666    -0.05400
C716        C  0.36007899  0.02923587  0.92661122    -0.32800
C717        C  0.35977766  0.02831986  0.89752296     0.36400
C718        C  0.36632602  0.05189355  0.88133708    -0.05800
C719        C  0.37206202  0.07582618  0.89522393    -0.32700
C720        C  0.37168975  0.07645020  0.92460816     0.36300
H721        H  0.35597605  0.01112884  0.93840771     0.16700
O722        O  0.35447155  0.00448263  0.88527441    -0.60200
H723        H  0.37695094  0.09409389  0.88331965     0.16700
O724        O  0.37661545  0.09986845  0.93751271    -0.60300
H725        H  0.35844548  0.09807228  0.94023673     0.43700
H726        H  0.33435868  0.99358246  0.88415976     0.43700
C727        C  0.35725432  0.48339757  0.72408180    -0.05400
C728        C  0.37977556  0.48820937  0.70751430    -0.32800
C729        C  0.38012106  0.46703362  0.69324406     0.36400
C730        C  0.35780985  0.44049464  0.69548244    -0.05800
C731        C  0.33515799  0.43561322  0.71169628    -0.32700
C732        C  0.33470796  0.45678372  0.72591887     0.36300
H733        H  0.39754291  0.50832449  0.70618525     0.16700
O734        O  0.40290681  0.47217076  0.67829154    -0.60200
H735        H  0.31771147  0.41530241  0.71324535     0.16700
O736        O  0.31191251  0.45130778  0.74105634    -0.60300
H737        H  0.31361284  0.44351371  0.75913479     0.43700
H738        H  0.40158430  0.48027416  0.66026167     0.43700
C739        C  0.45287211  0.39665832  0.85145542    -0.05400
C740        C  0.46722742  0.38796301  0.83446110    -0.32800
C741        C  0.45495483  0.36141696  0.82488461     0.36400
C742        C  0.42759131  0.34293976  0.83194999    -0.05800
C743        C  0.41372225  0.35121189  0.85024761    -0.32700
C744        C  0.42623492  0.37773977  0.86016638     0.36300
H745        H  0.48773642  0.40211520  0.82736590     0.16700
O746        O  0.46988023  0.35401295  0.80830835    -0.60200
H747        H  0.39292104  0.33722052  0.85661932     0.16700
O748        O  0.41204350  0.38508670  0.87786620    -0.60300
H749        H  0.41842279  0.38398917  0.89689728     0.43700
H750        H  0.46823253  0.35969925  0.78902717     0.43700
C751        C  0.03636114  0.48294289  0.85069104    -0.05400
C752        C  0.04485614  0.47060220  0.83094258    -0.32800
C753        C  0.07167023  0.48314382  0.82158493     0.36400
C754        C  0.09048897  0.00948632  0.83014437    -0.05800
C755        C  0.08270021  0.02147262  0.85119797    -0.32700
C756        C  0.05581534  0.00879390  0.86110830     0.36300
H757        H  0.03037176  0.45131979  0.82197289     0.16700
O758        O  0.07857933  0.47028840  0.80182123    -0.60200
H759        H  0.09742981  0.04073478  0.85999273     0.16700
O760        O  0.04875416  0.02093116  0.88152247    -0.60300
H761        H  0.04998543  0.01250551  0.89936922     0.43700
H762        H  0.08303316  0.45797112  0.81257441     0.43700
C763        C  0.44888355  0.48166454  0.84024776    -0.05400
C764        C  0.43269380  0.47305617  0.81619913    -0.32800
C765        C  0.41812027  0.48570174  0.80749171     0.36400
C766        C  0.41932629  0.00739230  0.82390361    -0.05800
C767        C  0.43545139  0.01624755  0.84804182    -0.32700
C768        C  0.45050833  0.50336594  0.85556952     0.36300
H769        H  0.43163047  0.45667217  0.80390184     0.16700
O770        O  0.40303806  0.47708226  0.78352274    -0.60200
H771        H  0.43643211  0.03264613  0.86023758     0.16700
O772        O  0.46598938  0.51211043  0.87925636    -0.60300
H773        H  0.45314203  0.00078872  0.89620622     0.43700
H774        H  0.41529975  0.48898514  0.76833207     0.43700
C775        C  0.99617882  0.35231483  0.69571909    -0.05400
C776        C  0.50212605  0.34111102  0.71913613    -0.32800
C777        C  0.48137532  0.31945990  0.73451922     0.36400
C778        C  0.45393039  0.30876050  0.72669799    -0.05800
C779        C  0.44811409  0.31968969  0.70285080    -0.32700
C780        C  0.46879061  0.34122995  0.68750034     0.36300
H781        H  0.02306362  0.34926066  0.72577011     0.16700
O782        O  0.48817537  0.30972879  0.75772619    -0.60200
H783        H  0.42727261  0.31213440  0.69642027     0.16700
O784        O  0.46184741  0.35251688  0.66571348    -0.60300
H785        H  0.45596714  0.33910601  0.65047871     0.43700
H786        H  0.49189088  0.29555045  0.75066825     0.43700
C787        C  0.08039454  0.44411057  0.69767979    -0.05400
C788        C  0.08736367  0.47116183  0.69206696    -0.32800
C789        C  0.10881033  0.49262813  0.70615462     0.36400
C790        C  0.12380711  0.48724576  0.72633975    -0.05800
C791        C  0.11682125  0.46013806  0.73176293    -0.32700
C792        C  0.09536786  0.43873366  0.71773385     0.36300
H793        H  0.07596309  0.47567041  0.67683614     0.16700
O794        O  0.11419843  0.01855109  0.70051350    -0.60200
H795        H  0.12800216  0.45537109  0.74702168     0.16700
O796        O  0.09001210  0.41267953  0.72282976    -0.60300
H797        H  0.08093719  0.40753593  0.74144929     0.43700
H798        H  0.12666383  0.02526284  0.68408169     0.43700
C799        C  0.03929889  0.40181464  0.60573446    -0.05400
C800        C  0.01457458  0.39007887  0.59101202    -0.32800
C801        C  0.01421259  0.38844664  0.56177413     0.36400
C802        C  0.03877911  0.39963950  0.54666120    -0.05800
C803        C  0.06347869  0.41220404  0.56106935    -0.32700
C804        C  0.06393988  0.41303285  0.59034430     0.36300
H805        H  0.99538204  0.38167627  0.60222890     0.16700
O806        O  0.48976877  0.37620380  0.54808267    -0.60200
H807        H  0.08252414  0.42010298  0.54963206     0.16700
O808        O  0.08841130  0.42274271  0.60367566    -0.60300
H809        H  0.09839161  0.44261427  0.59988498     0.43700
H810        H  0.48398922  0.35659830  0.54808300     0.43700
C811        C  0.08563240  0.08360307  0.70468178    -0.05400
C812        C  0.11302906  0.09963129  0.69629974    -0.32800
C813        C  0.13400202  0.09996813  0.71229233     0.36400
C814        C  0.12769411  0.08443999  0.73727601    -0.05800
C815        C  0.10029241  0.06823232  0.74531359    -0.32700
C816        C  0.07942814  0.06758459  0.72927670     0.36300
H817        H  0.11818726  0.11210734  0.67745594     0.16700
O818        O  0.16051501  0.11613970  0.70380127    -0.60200
H819        H  0.09483482  0.05533563  0.76388388     0.16700
O820        O  0.05290716  0.05007464  0.73700653    -0.60300
H821        H  0.05007971  0.05721782  0.75475551     0.43700
H822        H  0.16371447  0.10544621  0.68960053     0.43700
C823        C  0.99766681  0.08323199  0.70233255    -0.05400
C824        C  0.48665458  0.09972363  0.69450067    -0.32800
C825        C  0.46541373  0.09928812  0.71021719     0.36400
C826        C  0.45501264  0.08224149  0.73411725    -0.05800
C827        C  0.46572623  0.06547182  0.74144527    -0.32700
C828        C  0.48665435  0.06574372  0.72582973     0.36300
H829        H  0.49481200  0.11324854  0.67646668     0.16700
O830        O  0.45529316  0.11579437  0.70226900    -0.60200
H831        H  0.45743651  0.05152411  0.75917769     0.16700
O832        O  0.99530915  0.04778204  0.73286907    -0.60300
H833        H  0.50425829  0.05372874  0.75128057     0.43700
H834        H  0.46601108  0.13276494  0.71283853     0.43700
C835        C  0.04009251  0.07548634  0.61223402    -0.05400
C836        C  0.06475248  0.08928876  0.59710045    -0.32800
C837        C  0.06530417  0.08848396  0.56790222     0.36400
C838        C  0.04090273  0.07439689  0.55301488    -0.05800
C839        C  0.01628565  0.05983445  0.56782510    -0.32700
C840        C  0.01575015  0.05984898  0.59724192     0.36300
H841        H  0.08372807  0.10176628  0.60781307     0.16700
O842        O  0.08959665  0.10371421  0.55398625    -0.60200
H843        H  0.99735920  0.04890406  0.55653054     0.16700
O844        O  0.99151220  0.04403850  0.61108524    -0.60300
H845        H  0.47994811  0.05208830  0.60636912     0.43700
H846        H  0.09743906  0.09160594  0.55236298     0.43700
C847        C  0.04203083  0.58082196  0.64360405     0.03200
C848        C  0.02147203  0.58337042  0.65766494    -0.13000
C849        C  0.02181858  0.58583468  0.68690983     0.00700
C850        C  0.04396699  0.58783180  0.70189505    -0.11500
C851        C  0.06465056  0.58546556  0.68851634     0.03200
C852        C  0.06354636  0.58188486  0.65945472    -0.10900
H853        H  0.00497455  0.58312358  0.64610574     0.08800
H854        H  0.04485079  0.59074968  0.72431116     0.06300
H855        H  0.07912642  0.57916773  0.64939338     0.06200
C856        C  0.03878434  0.90090907  0.63613229     0.03200
C857        C  0.01933380  0.87757405  0.65078595    -0.13000
C858        C  0.01838832  0.87666351  0.68016841     0.00700
C859        C  0.03839574  0.89874425  0.69500589    -0.11500
C860        C  0.05855847  0.92185058  0.68076269     0.03200
C861        C  0.05784079  0.92327341  0.65148186    -0.10900
H862        H  0.00502545  0.85986016  0.63933882     0.08800
H863        H  0.03804545  0.89817038  0.71767899     0.06300
H864        H  0.07259664  0.94169870  0.64074104     0.06200
C865        C  0.46407538  0.96864518  0.85087225     0.03200
C866        C  0.49249204  0.98373068  0.85319822    -0.13000
C867        C  0.00733203  0.97039572  0.85777304     0.00700
C868        C  0.49358327  0.94228758  0.86236259    -0.11500
C869        C  0.46556675  0.92686071  0.85796179     0.03200
C870        C  0.45076512  0.94020451  0.85293660    -0.10900
H871        H  0.00311056  0.50450928  0.84753330     0.08800
H872        H  0.00521984  0.93206103  0.86549395     0.06300
H873        H  0.42921825  0.92851416  0.84850905     0.06200
O874        O  0.33280552  0.54104829  0.75372978    -0.85300
O875        O  0.37250549  0.59308707  0.76421011    -0.82300
C876        C  0.39109696  0.61195334  0.77798384     0.98200
O877        O  0.40828248  0.60813009  0.79130915    -0.82400
O878        O  0.38348840  0.57377043  0.83715846    -0.85000
C879        C  0.36952460  0.55198239  0.85097651     1.02700
O880        O  0.36033494  0.52945497  0.83893366    -0.77800
O881        O  0.32530735  0.52816214  0.79796189    -0.78000
C882        C  0.31752849  0.53378305  0.77535901     1.02600
O883        O  0.37563696  0.53010682  0.73475959    -0.85300
O884        O  0.41375597  0.58331055  0.74109139    -0.82400
C885        C  0.43276163  0.58068183  0.75167844     0.98200
O886        O  0.43206491  0.57471384  0.77721697    -0.82400
O887        O  0.41097324  0.54415957  0.82394743    -0.85000
C888        C  0.40371512  0.52062344  0.81498061     1.02700
O889        O  0.38288403  0.50845814  0.79991248    -0.77800
O890        O  0.34339386  0.00001811  0.76167371    -0.78000
C891        C  0.35863151  0.50579897  0.74084343     1.02600
Cr892      Cr  0.37389238  0.56111854  0.75099690     1.93700
Cr893      Cr  0.40656851  0.57382650  0.80574182     1.93200
Cr894      Cr  0.35463158  0.51914234  0.79871806     1.39100
O895        O  0.37824894  0.55172830  0.78532222    -1.23000
O896        O  0.39436178  0.72739370  0.75669660    -0.85300
O897        O  0.34280982  0.71630526  0.76643400    -0.82300
C898        C  0.32321671  0.71613697  0.77895429     0.98200
O899        O  0.32613071  0.73766201  0.78979028    -0.82400
O900        O  0.35679075  0.74394347  0.83715574    -0.85000
C901        C  0.37728901  0.75021464  0.85221406     1.02700
O902        O  0.40095562  0.76314610  0.84164907    -0.77800
O903        O  0.40415147  0.73096475  0.80128194    -0.78000
C904        C  0.39882485  0.71781395  0.77896216     1.02600
O905        O  0.40721512  0.78134869  0.73697741    -0.85300
O906        O  0.35408513  0.76774768  0.74180836    -0.82400
C907        C  0.35723286  0.78975588  0.75152083     0.98200
O908        O  0.36255095  0.79494863  0.77700413    -0.82400
O909        O  0.38896476  0.80102010  0.82599701    -0.85000
C910        C  0.41380950  0.81662394  0.81980435     1.02700
O911        O  0.42628500  0.80845316  0.80444973    -0.77800
O912        O  0.43547055  0.77844667  0.76578699    -0.78000
C913        C  0.43123850  0.78855666  0.74390244     1.02600
Cr914      Cr  0.37520942  0.74914515  0.75290620     1.93700
Cr915      Cr  0.36009102  0.76875617  0.80591277     1.93200
Cr916      Cr  0.41442530  0.76956049  0.80208009     1.39100
O917        O  0.38310809  0.76235198  0.78705833    -1.23000
O918        O  0.22098725  0.59437965  0.76711294    -0.85300
O919        O  0.20740605  0.54265144  0.75402725    -0.82300
C920        C  0.21593647  0.53521565  0.77506909     0.98200
O921        O  0.20317740  0.52963820  0.79803161    -0.82400
O922        O  0.17180826  0.53180549  0.84063268    -0.85000
C923        C  0.18520983  0.55436067  0.85261929     1.02700
O924        O  0.19281685  0.57625536  0.83906936    -0.77800
O925        O  0.20090449  0.61061489  0.79346233    -0.78000
C926        C  0.22195128  0.61354673  0.78091070     1.02600
O927        O  0.17041716  0.58702819  0.74543935    -0.85300
O928        O  0.15383324  0.53373615  0.73720818    -0.82400
C929        C  0.14560530  0.50918097  0.74299318     0.98200
O930        O  0.15579033  0.00276400  0.76284884    -0.82400
O931        O  0.12687070  0.51145847  0.80416994    -0.85000
C932        C  0.11906148  0.52327486  0.82079725     1.02700
O933        O  0.13549273  0.54714140  0.82871241    -0.77800
O934        O  0.14321511  0.57709717  0.78153334    -0.78000
C935        C  0.14850486  0.58366788  0.75610304     1.02600
Cr936      Cr  0.18725009  0.56371662  0.75339090     1.93700
Cr937      Cr  0.16524473  0.52142871  0.80060491     1.93200
Cr938      Cr  0.16876570  0.57642494  0.80896659     1.39100
O939        O  0.17410551  0.55409185  0.78783539    -1.23000
C940        C  0.35944444  0.89625825  0.63657742     0.03200
C941        C  0.35841574  0.87450694  0.65215580    -0.13000
C942        C  0.35720129  0.87426095  0.68166317     0.00700
C943        C  0.35622892  0.89563465  0.69514944    -0.11500
C944        C  0.35850748  0.91788991  0.67988451     0.03200
C945        C  0.36049642  0.91825394  0.65072468    -0.10900
H946        H  0.35825003  0.85778149  0.64136381     0.08800
H947        H  0.35411683  0.89522306  0.71771748     0.06300
H948        H  0.36185225  0.93531851  0.63891103     0.06200
C949        C  0.20183543  0.91249734  0.30281396     0.03200
C950        C  0.22544327  0.91588504  0.31599116    -0.13000
C951        C  0.22849415  0.91931977  0.34499322     0.00700
C952        C  0.20822333  0.92035178  0.36079146    -0.11500
C953        C  0.18436528  0.91663409  0.34796295     0.03200
C954        C  0.18124264  0.91253826  0.31907456    -0.10900
H955        H  0.24142868  0.91564431  0.30377866     0.08800
H956        H  0.21065921  0.92316857  0.38319658     0.06300
H957        H  0.16233730  0.90853152  0.30945527     0.06200
C958        C  0.51106665  0.72516171  0.30758294     0.03200
C959        C  0.51219030  0.74753789  0.32114209    -0.13000
C960        C  0.51132670  0.74837366  0.35049810     0.00700
C961        C  0.51092800  0.72722545  0.36647568    -0.11500
C962        C  0.51071958  0.70516538  0.35340673     0.03200
C963        C  0.50972829  0.70382035  0.32407994    -0.10900
H964        H  0.51408570  0.76459862  0.30896128     0.08800
H965        H  0.51202525  0.72853116  0.38908059     0.06300
H966        H  0.50818687  0.68610355  0.31413491     0.06200
C967        C  0.12856116  0.80373166  0.51014557     0.03200
C968        C  0.15692695  0.81792075  0.51143686    -0.13000
C969        C  0.17112013  0.80437329  0.51821747     0.00700
C970        C  0.15651733  0.77663557  0.52530494    -0.11500
C971        C  0.12817033  0.76163499  0.52173648     0.03200
C972        C  0.11437696  0.77555606  0.51437736    -0.10900
H973        H  0.16798695  0.83919969  0.50529461     0.08800
H974        H  0.16751557  0.76636042  0.53136366     0.06300
H975        H  0.09275255  0.76453100  0.51051960     0.06200
O976        O  0.49953475  0.88023712  0.42082313    -0.85300
O977        O  0.04153319  0.93143124  0.42862959    -0.82300
C978        C  0.06183539  0.95069382  0.44004216     0.98200
O979        O  0.07947973  0.94665126  0.45205710    -0.82400
O980        O  0.05519772  0.91624328  0.50003483    -0.85000
C981        C  0.04041809  0.89603648  0.51556466     1.02700
O982        O  0.02897892  0.87222139  0.50598590    -0.77800
O983        O  0.49361757  0.87043326  0.46575632    -0.78000
C984        C  0.48545925  0.87532166  0.44308898     1.02600
O985        O  0.03906207  0.86543905  0.40135640    -0.85300
O986        O  0.07974847  0.91784653  0.40471000    -0.82400
C987        C  0.09822695  0.91398826  0.41469068     0.98200
O988        O  0.09814687  0.90855836  0.44022633    -0.82400
O989        O  0.07796182  0.88221397  0.48906577    -0.85000
C990        C  0.06911779  0.85810122  0.48105730     1.02700
O991        O  0.04723482  0.84598004  0.46770340    -0.77800
O992        O  0.00750549  0.83827400  0.43073830    -0.78000
C993        C  0.02145979  0.84177738  0.40879575     1.02600
Cr994      Cr  0.04026951  0.89813084  0.41632815     1.93700
Cr995      Cr  0.07550455  0.91203805  0.46889806     1.93200
Cr996      Cr  0.02101481  0.85898728  0.46647818     1.39100
O997        O  0.04550302  0.89000016  0.45071915    -1.23000
O998        O  0.03937012  0.55193213  0.43389837    -0.85300
O999        O  0.49864883  0.56383311  0.42759336    -0.82300
C1000       C  0.48436875  0.55324776  0.44948829     0.98200
O1001       O  0.49287539  0.56426310  0.47281833    -0.82400
O1002       O  0.02904698  0.59268585  0.51454669    -0.85000
C1003       C  0.04145546  0.58057896  0.52289076     1.02700
O1004       O  0.05619153  0.57625381  0.50631435    -0.77800
O1005       O  0.07828737  0.57243042  0.45577486    -0.78000
C1006       C  0.05949114  0.55143019  0.44434697     1.02600
O1007       O  0.07885974  0.60449485  0.41137765    -0.85300
O1008       O  0.03942280  0.61853649  0.41097485    -0.82400
C1009       C  0.02264608  0.62520239  0.41964444     0.98200
O1010       O  0.00937058  0.61462194  0.44210175    -0.82400
O1011       O  0.04849813  0.64116261  0.48187404    -0.85000
C1012       C  0.07050326  0.64883466  0.49469849     1.02700
O1013       O  0.08003467  0.63316315  0.49844307    -0.77800
O1014       O  0.09829365  0.63044320  0.44709491    -0.78000
C1015       C  0.09779085  0.62626283  0.42130205     1.02600
Cr1016     Cr  0.03950429  0.58550812  0.42362573     1.93700
Cr1017     Cr  0.02160273  0.60254369  0.47643360     1.93200
Cr1018     Cr  0.07588254  0.60242469  0.47539495     1.39100
O1019       O  0.04555981  0.59661121  0.45870619    -1.23000
O1020       O  0.37284545  0.93776444  0.42053901    -0.85300
O1021       O  0.38497784  0.89755901  0.42848599    -0.82300
C1022       C  0.38492420  0.87768210  0.44041302     0.98200
O1023       O  0.36361602  0.85911938  0.45223822    -0.82400
O1024       O  0.35593714  0.88116082  0.50042913    -0.85000
C1025       C  0.34906844  0.89464440  0.51584848     1.02700
O1026       O  0.33576689  0.90516546  0.50571732    -0.77800
O1027       O  0.36780766  0.94220908  0.46528277    -0.78000
C1028       C  0.38138052  0.95114848  0.44291437     1.02600
O1029       O  0.31948821  0.89680018  0.40093769    -0.85300
O1030       O  0.33395296  0.85787362  0.40448655    -0.82400
C1031       C  0.31200959  0.83847922  0.41435093     0.98200
O1032       O  0.30640084  0.83751873  0.43995772    -0.82400
O1033       O  0.29890901  0.85525562  0.48944301    -0.85000
C1034       C  0.28289217  0.86404520  0.48382090     1.02700
O1035       O  0.29062045  0.88552785  0.46949302    -0.77800
O1036       O  0.32082270  0.92635237  0.43055273    -0.78000
C1037       C  0.31204751  0.91330770  0.40810928     1.02600
Cr1038     Cr  0.35177571  0.89705918  0.41621051     1.93700
Cr1039     Cr  0.33188961  0.86050817  0.46896531     1.93200
Cr1040     Cr  0.32951971  0.91324330  0.46643278     1.39100
O1041       O  0.33789570  0.89030195  0.45063490    -1.23000
C1042       C  0.20534919  0.72909841  0.30712564     0.03200
C1043       C  0.18295365  0.71024416  0.32350698    -0.13000
C1044       C  0.18378893  0.71062192  0.35280710     0.00700
C1045       C  0.20687429  0.73116911  0.36594083    -0.11500
C1046       C  0.22908891  0.75081150  0.35016414     0.03200
C1047       C  0.22860454  0.74917845  0.32083769    -0.10900
H1048       H  0.16456770  0.69512389  0.31349923     0.08800
H1049       H  0.20774088  0.73188753  0.38858267     0.06300
H1050       H  0.24623958  0.76372903  0.30893955     0.06200
C1051       C  0.36427677  0.55287607  0.97221743     0.03200
C1052       C  0.34273668  0.53121252  0.98685357    -0.13000
C1053       C  0.34305275  0.52926105  0.01607899     0.00700
C1054       C  0.36503949  0.54924509  0.03090578    -0.11500
C1055       C  0.38685126  0.57104775  0.01680038     0.03200
C1056       C  0.38632406  0.57274302  0.98735913    -0.10900
H1057       H  0.32813157  0.01518860  0.97467583     0.08800
H1058       H  0.36466643  0.54819734  0.05356921     0.06300
H1059       H  0.40338104  0.58914894  0.97622758     0.06200
C1060       C  0.36860233  0.73944555  0.97298544     0.03200
C1061       C  0.38875670  0.73761270  0.98836021    -0.13000
C1062       C  0.38808914  0.73682555  0.01766544     0.00700
C1063       C  0.36628439  0.73691111  0.03161304    -0.11500
C1064       C  0.34543931  0.73794979  0.01663295     0.03200
C1065       C  0.34683106  0.73933230  0.98724438    -0.10900
H1066       H  0.40479033  0.73630683  0.97742495     0.08800
H1067       H  0.36557747  0.73630002  0.05428723     0.06300
H1068       H  0.33091020  0.74008000  0.97545522     0.06200
C1069       C  0.28870200  0.62446362  0.19403518     0.03200
C1070       C  0.31688713  0.63749505  0.19828531    -0.13000
C1071       C  0.33141017  0.62392183  0.19309108     0.00700
C1072       C  0.31683301  0.59615415  0.18708078    -0.11500
C1073       C  0.28831405  0.58173406  0.18715783     0.03200
C1074       C  0.27435473  0.59620200  0.19045771    -0.10900
H1075       H  0.32778842  0.65894206  0.20290771     0.08800
H1076       H  0.32765436  0.58608754  0.18019640     0.06300
H1077       H  0.25247707  0.58582382  0.18826257     0.06200
O1078       O  0.04423494  0.74608356  0.09991773    -0.85300
O1079       O  0.03150470  0.69361095  0.09205843    -0.82300
C1080       C  0.04108673  0.68901635  0.11408268     0.98200
O1081       O  0.02865080  0.68520146  0.13705245    -0.82400
O1082       O  0.99871050  0.69188236  0.17857631    -0.85000
C1083       C  0.01067526  0.71612426  0.18712903     1.02700
O1084       O  0.01621443  0.73572943  0.17060613    -0.77800
O1085       O  0.02270747  0.76389275  0.12102039    -0.78000
C1086       C  0.04438903  0.76628300  0.11057654     1.02600
O1087       O  0.99275062  0.73524468  0.07597332    -0.85300
O1088       O  0.97819539  0.68219497  0.07426053    -0.82400
C1089       C  0.46992506  0.65819639  0.08230733     0.98200
O1090       O  0.47902145  0.65360457  0.10480358    -0.82400
O1091       O  0.45143666  0.66484677  0.14488370    -0.85000
C1092       C  0.44359725  0.67879305  0.15810215     1.02700
O1093       O  0.45933957  0.70382154  0.16197709    -0.77800
O1094       O  0.46487528  0.72688573  0.11100545    -0.78000
C1095       C  0.47023864  0.73154046  0.08536236     1.02600
Cr1096     Cr  0.01077722  0.71379066  0.08816651     1.93700
Cr1097     Cr  0.49024103  0.67617950  0.13996757     1.93200
Cr1098     Cr  0.49143297  0.73098674  0.13967223     1.39100
O1099       O  0.99761897  0.70700139  0.12281311    -1.23000
O1100       O  0.21971627  0.88169525  0.08890322    -0.85300
O1101       O  0.16718965  0.86884650  0.09657997    -0.82300
C1102       C  0.14692143  0.86813790  0.10815319     0.98200
O1103       O  0.14911586  0.88929956  0.11929685    -0.82400
O1104       O  0.17829888  0.89741317  0.16789427    -0.85000
C1105       C  0.19839445  0.90380960  0.18352059     1.02700
O1106       O  0.22238722  0.91616987  0.17387819    -0.77800
O1107       O  0.22768632  0.88457660  0.13392112    -0.78000
C1108       C  0.22385520  0.87209077  0.11128769     1.02600
O1109       O  0.23166475  0.93515728  0.06941928    -0.85300
O1110       O  0.17810502  0.92000789  0.07154142    -0.82400
C1111       C  0.18099906  0.94197972  0.08092931     0.98200
O1112       O  0.18495392  0.94690182  0.10651292    -0.82400
O1113       O  0.20967947  0.95446322  0.15583944    -0.85000
C1114       C  0.23467394  0.97019494  0.15050331     1.02700
O1115       O  0.24856027  0.96197629  0.13756873    -0.77800
O1116       O  0.25926104  0.93248654  0.09939730    -0.78000
C1117       C  0.25548148  0.94262030  0.07728490     1.02600
Cr1118     Cr  0.19966217  0.90235641  0.08415949     1.93700
Cr1119     Cr  0.18206324  0.92131644  0.13591299     1.93200
Cr1120     Cr  0.23714367  0.92303015  0.13490286     1.39100
O1121       O  0.20613766  0.91538065  0.11852878    -1.23000
O1122       O  0.15856764  0.69554399  0.09163217    -0.85300
O1123       O  0.19908803  0.74809913  0.09890511    -0.82300
C1124       C  0.21925833  0.76791141  0.10990328     0.98200
O1125       O  0.23792776  0.76492174  0.12098427    -0.82400
O1126       O  0.21599389  0.73588266  0.17032005    -0.85000
C1127       C  0.20180166  0.71582342  0.18637488     1.02700
O1128       O  0.19047837  0.69196912  0.17693233    -0.77800
O1129       O  0.15363277  0.68622358  0.13652470    -0.78000
C1130       C  0.14457704  0.69021811  0.11399111     1.02600
O1131       O  0.19999645  0.68336606  0.07240535    -0.85300
O1132       O  0.23887973  0.73649692  0.07445224    -0.82400
C1133       C  0.25788948  0.73310320  0.08377123     0.98200
O1134       O  0.25873524  0.72835133  0.10940988    -0.82400
O1135       O  0.24118757  0.70404404  0.16014646    -0.85000
C1136       C  0.23172841  0.67899924  0.15603567     1.02700
O1137       O  0.21023809  0.66543547  0.14228863    -0.77800
O1138       O  0.17071295  0.65498377  0.10310906    -0.78000
C1139       C  0.18428751  0.65937267  0.08065196     1.02600
Cr1140     Cr  0.19952107  0.71529410  0.08698817     1.93700
Cr1141     Cr  0.23618612  0.73171678  0.13869365     1.93200
Cr1142     Cr  0.18284974  0.67703675  0.13829585     1.39100
O1143       O  0.20610512  0.70811170  0.12148112    -1.23000
C1144       C  0.18565273  0.55244358  0.97335321     0.03200
C1145       C  0.18441472  0.53044086  0.98834582    -0.13000
C1146       C  0.18214351  0.52907108  0.01752957     0.00700
C1147       C  0.18097141  0.54987727  0.03185438    -0.11500
C1148       C  0.18257698  0.57223086  0.01722796     0.03200
C1149       C  0.18488790  0.57336242  0.98788875    -0.10900
H1150       H  0.18608495  0.01527520  0.97622966     0.08800
H1151       H  0.17932048  0.54889887  0.05448857     0.06300
H1152       H  0.18544653  0.59018005  0.97631965     0.06200
C1153       C  0.18243173  0.63667092  0.06388418    -0.05400
C1154       C  0.20217012  0.64249446  0.04294628    -0.32800
C1155       C  0.20235440  0.62178514  0.02768811     0.36400
C1156       C  0.18231197  0.59453770  0.03276338    -0.05800
C1157       C  0.16246855  0.58857786  0.05354457    -0.32700
C1158       C  0.16237847  0.60933362  0.06902352     0.36300
H1159       H  0.21811634  0.66321810  0.03880056     0.16700
O1160       O  0.22277734  0.62838950  0.00845030    -0.60200
H1161       H  0.14691687  0.56770919  0.05776730     0.16700
O1162       O  0.14279970  0.60255843  0.08928759    -0.60300
H1163       H  0.12716837  0.60205773  0.07945088     0.43700
H1164       H  0.23691079  0.62636980  0.01864680     0.43700
C1165       C  0.22398094  0.84604444  0.11069248    -0.05400
C1166       C  0.21078016  0.82797139  0.08879081    -0.32800
C1167       C  0.20923163  0.80262412  0.08818814     0.36400
C1168       C  0.22126210  0.79492274  0.10958803    -0.05800
C1169       C  0.23487564  0.81312653  0.13124941    -0.32700
C1170       C  0.23613458  0.83838104  0.13205306     0.36300
H1171       H  0.20109754  0.83325199  0.07225695     0.16700
O1172       O  0.19584089  0.78554633  0.06654957    -0.64400
H1173       H  0.24410078  0.80753005  0.14799078     0.16700
O1174       O  0.24906731  0.85522390  0.15398336    -0.60300
H1175       H  0.26826620  0.86660075  0.14777212     0.43700
H1176       H  0.21010046  0.78945723  0.05228598     0.43700
C1177       C  0.18225945  0.00651701  0.03203757    -0.05400
C1178       C  0.16450212  0.97939617  0.02446832    -0.32800
C1179       C  0.16400332  0.95775229  0.03962860     0.36400
C1180       C  0.18151863  0.96325997  0.06247628    -0.05800
C1181       C  0.20016427  0.99033639  0.06883976    -0.32700
C1182       C  0.20127124  0.51206818  0.05450059     0.36300
H1183       H  0.15060243  0.97501597  0.00722175     0.16700
O1184       O  0.14608598  0.93151430  0.03233577    -0.60200
H1185       H  0.21577614  0.49551173  0.08592579     0.16700
O1186       O  0.22067245  0.53826273  0.06037685    -0.60300
H1187       H  0.23604772  0.54257662  0.04745202     0.43700
H1188       H  0.12925408  0.92638579  0.04320647     0.43700
C1189       C  0.06692309  0.68804839  0.11318182    -0.05400
C1190       C  0.07666372  0.68234853  0.13792575    -0.32800
C1191       C  0.10144038  0.68251167  0.13840981     0.36400
C1192       C  0.11743197  0.68856356  0.11377989    -0.05800
C1193       C  0.10754367  0.69390997  0.08891265    -0.32700
C1194       C  0.08272512  0.69382445  0.08847352     0.36300
H1195       H  0.06517545  0.67799599  0.15729021     0.16700
O1196       O  0.11003586  0.67738233  0.16340054    -0.60200
H1197       H  0.11928901  0.69863604  0.06968949     0.16700
O1198       O  0.07431423  0.69960989  0.06372832    -0.60300
H1199       H  0.08272905  0.71967246  0.06309438     0.43700
H1200       H  0.10168503  0.65734390  0.16458596     0.43700
C1201       C  0.07010142  0.79280987  0.10995403    -0.05400
C1202       C  0.09185174  0.79566820  0.09333961    -0.32800
C1203       C  0.11665225  0.81995732  0.09234831     0.36400
C1204       C  0.12040702  0.84233088  0.10829824    -0.05800
C1205       C  0.09866554  0.83953781  0.12496048    -0.32700
C1206       C  0.07378217  0.81503329  0.12603176     0.36300
H1207       H  0.08973208  0.77894407  0.08086427     0.16700
O1208       O  0.13712373  0.82134222  0.07582472    -0.60200
H1209       H  0.10105544  0.85625109  0.13761915     0.16700
O1210       O  0.05342207  0.81301394  0.14316610    -0.60300
H1211       H  0.05628676  0.80635990  0.16143691     0.43700
H1212       H  0.13416611  0.82694786  0.05700822     0.43700
C1213       C  0.24630089  0.66587286  0.16759339    -0.05400
C1214       C  0.27344844  0.67607270  0.15983244    -0.32800
C1215       C  0.28781589  0.66351301  0.16923799     0.36400
C1216       C  0.27521536  0.64065451  0.18759224    -0.05800
C1217       C  0.24827999  0.63138483  0.19651301    -0.32700
C1218       C  0.23373494  0.64366209  0.18636798     0.36300
H1219       H  0.28328501  0.69326968  0.14545596     0.16700
O1220       O  0.31331547  0.67235809  0.15834093    -0.60200
H1221       H  0.23825124  0.61415065  0.21079864     0.16700
O1222       O  0.20752125  0.63425542  0.19537851    -0.60300
H1223       H  0.19598801  0.61965055  0.18225572     0.43700
H1224       H  0.32522492  0.69006739  0.16725556     0.43700
C1225       C  0.24744540  0.49803880  0.16231451    -0.05400
C1226       C  0.26979404  0.50771709  0.18016048    -0.32800
C1227       C  0.28255879  0.53454322  0.18945712     0.36400
C1228       C  0.27359484  0.55243623  0.17987880    -0.05800
C1229       C  0.25097774  0.54236818  0.16208174    -0.32700
C1230       C  0.23751227  0.51525565  0.15400096     0.36300
H1231       H  0.27700644  0.49426666  0.18738481     0.16700
O1232       O  0.30296182  0.54273918  0.20879405    -0.60200
H1233       H  0.24386155  0.55555773  0.15387712     0.16700
O1234       O  0.21527035  0.50605102  0.13703150    -0.60300
H1235       H  0.19963997  0.50093511  0.14986264     0.43700
H1236       H  0.31820830  0.54231813  0.19906679     0.43700
C1237       C  0.41584738  0.66596091  0.16946809    -0.05400
C1238       C  0.40509124  0.64133252  0.18442785    -0.32800
C1239       C  0.37817879  0.62833270  0.19436752     0.36400
C1240       C  0.36135929  0.63952425  0.18825241    -0.05800
C1241       C  0.37283320  0.66485303  0.17423351    -0.32700
C1242       C  0.39994288  0.67831433  0.16552539     0.36300
H1243       H  0.41764139  0.63226103  0.18858032     0.16700
O1244       O  0.36869583  0.60516389  0.21058664    -0.60200
H1245       H  0.36060131  0.67393253  0.16880526     0.16700
O1246       O  0.41018358  0.70276031  0.15154126    -0.60300
H1247       H  0.41629882  0.71658121  0.16637299     0.43700
H1248       H  0.36950344  0.59150578  0.19851605     0.43700
C1249       C  0.32178581  0.73629356  0.03203107    -0.05400
C1250       C  0.30887543  0.71608345  0.05280435    -0.32800
C1251       C  0.28767089  0.71462347  0.06900107     0.36400
C1252       C  0.27896666  0.73373328  0.06493152    -0.05800
C1253       C  0.29096318  0.75331390  0.04338737    -0.32700
C1254       C  0.31231356  0.75473531  0.02699076     0.36300
H1255       H  0.31533347  0.70129633  0.05656583     0.16700
O1256       O  0.27551543  0.69429295  0.08884435    -0.60200
H1257       H  0.28443550  0.76807493  0.03989311     0.16700
O1258       O  0.32488668  0.77521382  0.00737493    -0.60300
H1259       H  0.31205891  0.76984177  0.99150380     0.43700
H1260       H  0.25900416  0.67980210  0.07977847     0.43700
C1261       C  0.40965157  0.73507313  0.03379988    -0.05400
C1262       C  0.40206816  0.71612052  0.05591048    -0.32800
C1263       C  0.42167841  0.71445994  0.07214392     0.36400
C1264       C  0.44964687  0.73214264  0.06674753    -0.05800
C1265       C  0.45738266  0.75039912  0.04395960    -0.32700
C1266       C  0.43765216  0.75213450  0.02768349     0.36300
H1267       H  0.38074900  0.70235323  0.06056356     0.16700
O1268       O  0.41320244  0.69525127  0.09321731    -0.60200
H1269       H  0.47874304  0.76396888  0.03934253     0.16700
O1270       O  0.44601797  0.77112133  0.00640415    -0.60300
H1271       H  0.44677779  0.78734194  0.01482261     0.43700
H1272       H  0.41294762  0.67926568  0.08481534     0.43700
C1273       C  0.27871058  0.96359818  0.06068594    -0.05400
C1274       C  0.27361127  0.97799691  0.03964036    -0.32800
C1275       C  0.29330727  0.50010360  0.02687154     0.36400
C1276       C  0.32031673  0.50639714  0.03130329    -0.05800
C1277       C  0.32721431  0.99196042  0.05125607    -0.32700
C1278       C  0.30587504  0.97075381  0.06639379     0.36300
H1279       H  0.25300577  0.97332604  0.03516419     0.16700
O1280       O  0.28749992  0.51552289  0.00885640    -0.60200
H1281       H  0.34796136  0.99714187  0.05578160     0.16700
O1282       O  0.31186254  0.95710730  0.08649343    -0.60300
H1283       H  0.31614497  0.96829412  0.10349771     0.43700
H1284       H  0.27885492  0.50388851  0.99244957     0.43700
C1285       C  0.44954401  0.63572227  0.06492942    -0.05400
C1286       C  0.44106955  0.60852323  0.07194467    -0.32800
C1287       C  0.42126051  0.58722493  0.05611323     0.36400
C1288       C  0.40926650  0.59288851  0.03297193    -0.05800
C1289       C  0.41794011  0.61998656  0.02582691    -0.32700
C1290       C  0.43768035  0.64122376  0.04145825     0.36300
H1291       H  0.44978283  0.60369227  0.08975576     0.16700
O1292       O  0.41387039  0.56098880  0.06344013    -0.60200
H1293       H  0.40880298  0.62482566  0.00839457     0.16700
O1294       O  0.44505586  0.66732433  0.03349190    -0.60300
H1295       H  0.43053409  0.67044194  0.04095395     0.43700
H1296       H  0.42516637  0.55632792  0.05141809     0.43700
C1297       C  0.20421955  0.72668384  0.27593493    -0.05400
C1298       C  0.19075296  0.70063139  0.26436782    -0.32800
C1299       C  0.18833583  0.69695927  0.23552306     0.36400
C1300       C  0.20055605  0.71959633  0.21698748    -0.05800
C1301       C  0.21394110  0.74576156  0.22834755    -0.32700
C1302       C  0.21571723  0.74946033  0.25747555     0.36300
H1303       H  0.18222220  0.68267097  0.27774488     0.16700
O1304       O  0.17475256  0.67088879  0.22585030    -0.60200
H1305       H  0.22337436  0.76350524  0.21464994     0.16700
O1306       O  0.22782947  0.77538105  0.26752944    -0.60300
H1307       H  0.24747608  0.78350359  0.26302697     0.43700
H1308       H  0.15553266  0.66641606  0.22412401     0.43700
C1309       C  0.29183396  0.81728016  0.39601012    -0.05400
C1310       C  0.29898082  0.80238337  0.37809473    -0.32800
C1311       C  0.27892751  0.78089420  0.36242455     0.36400
C1312       C  0.25146133  0.77423034  0.36466806    -0.05800
C1313       C  0.24473377  0.78995154  0.38167396    -0.32700
C1314       C  0.26458344  0.81126001  0.39725001     0.36300
H1315       H  0.31989831  0.80685757  0.37691313     0.16700
O1316       O  0.28608826  0.76565659  0.34624537    -0.60200
H1317       H  0.22384393  0.78558891  0.38298032     0.16700
O1318       O  0.25748576  0.82697226  0.41281266    -0.60300
H1319       H  0.24319186  0.81432544  0.42610443     0.43700
H1320       H  0.29367637  0.77643289  0.32872435     0.43700
C1321       C  0.40726944  0.97751738  0.44323863    -0.05400
C1322       C  0.41286443  0.99470437  0.46617540    -0.32800
C1323       C  0.43799926  0.51964151  0.46935638     0.36400
C1324       C  0.45755416  0.52790445  0.44764331    -0.05800
C1325       C  0.45204274  0.00955126  0.42400955    -0.32700
C1326       C  0.42716800  0.98524445  0.42196712     0.36300
H1327       H  0.39793721  0.98935673  0.48277844     0.16700
O1328       O  0.44250278  0.53548414  0.49235876    -0.60200
H1329       H  0.46718282  0.01479269  0.40765717     0.16700
O1330       O  0.42316138  0.96861631  0.39979289    -0.60300
H1331       H  0.41653503  0.97568359  0.38444001     0.43700
H1332       H  0.44919942  0.52774848  0.50698316     0.43700
C1333       C  0.16078570  0.68910528  0.36960516    -0.05400
C1334       C  0.14978551  0.66161302  0.36261148    -0.32800
C1335       C  0.12897112  0.64086930  0.37887481     0.36400
C1336       C  0.11917842  0.64738405  0.40293091    -0.05800
C1337       C  0.12973576  0.67486780  0.40953199    -0.32700
C1338       C  0.15000791  0.69559038  0.39293489     0.36300
H1339       H  0.15775482  0.65613742  0.34478179     0.16700
O1340       O  0.11934868  0.61430250  0.37186773    -0.60200
H1341       H  0.12188846  0.68036125  0.42745361     0.16700
O1342       O  0.15890449  0.72212297  0.39957474    -0.60300
H1343       H  0.14848096  0.72784035  0.38733727     0.43700
H1344       H  0.10522772  0.61036045  0.35758687     0.43700
C1345       C  0.45916306  0.87493568  0.44235869    -0.05400
C1346       C  0.45248575  0.88515173  0.41856541    -0.32800
C1347       C  0.42822781  0.88585218  0.41753222     0.36400
C1348       C  0.41000457  0.87604689  0.44043731    -0.05800
C1349       C  0.41629327  0.86535298  0.46399228    -0.32700
C1350       C  0.44076320  0.86505239  0.46528027     0.36300
H1351       H  0.46624686  0.89295935  0.40074790     0.16700
O1352       O  0.42250461  0.89608606  0.39396675    -0.60200
H1353       H  0.40251919  0.85787038  0.48182930     0.16700
O1354       O  0.44626775  0.85481092  0.48897603    -0.60300
H1355       H  0.45412110  0.87008171  0.50225327     0.43700
H1356       H  0.41128145  0.88007284  0.38224560     0.43700
C1357       C  0.06461333  0.97805789  0.43925110    -0.05400
C1358       C  0.08109552  0.99776186  0.45870388    -0.32800
C1359       C  0.08233920  0.52329464  0.45385762     0.36400
C1360       C  0.06067699  0.52593091  0.44275382    -0.05800
C1361       C  0.03892152  0.50326281  0.43031660    -0.32700
C1362       C  0.04949094  0.98422732  0.42004488     0.36300
H1363       H  0.09300434  0.99355233  0.47354939     0.16700
O1364       O  0.10405109  0.54480094  0.46624511    -0.60200
H1365       H  0.02198967  0.50455505  0.42151894     0.16700
O1366       O  0.03447544  0.96644062  0.39946738    -0.60300
H1367       H  0.01539585  0.95719043  0.40641167     0.43700
H1368       H  0.11519524  0.05140635  0.47204874     0.43700
C1369       C  0.11401738  0.73153686  0.52000254    -0.05400
C1370       C  0.12761009  0.71950843  0.50703253    -0.32800
C1371       C  0.11383026  0.69215600  0.50021612     0.36400
C1372       C  0.08571823  0.67649796  0.50520380    -0.05800
C1373       C  0.07221701  0.68772573  0.51950156    -0.32700
C1374       C  0.08627747  0.71498180  0.52744995     0.36300
H1375       H  0.14869930  0.73152442  0.50059696     0.16700
O1376       O  0.12759892  0.68150793  0.48655790    -0.60200
H1377       H  0.05072144  0.67537896  0.52438970     0.16700
O1378       O  0.07297401  0.72512735  0.54284577    -0.60300
H1379       H  0.05775035  0.72322484  0.53103655     0.43700
H1380       H  0.13585101  0.67582209  0.50158048     0.43700
C1381       C  0.20079804  0.81834669  0.51304657    -0.05400
C1382       C  0.21722264  0.84541158  0.52135356    -0.32800
C1383       C  0.24412993  0.86072658  0.51184779     0.36400
C1384       C  0.25502797  0.84872481  0.49449781    -0.05800
C1385       C  0.23935854  0.82132588  0.48772423    -0.32700
C1386       C  0.21225051  0.80622553  0.49633195     0.36300
H1387       H  0.20887114  0.85494889  0.53444870     0.16700
O1388       O  0.25982431  0.88709977  0.52015495    -0.60200
H1389       H  0.24791022  0.81185382  0.47483028     0.16700
O1390       O  0.19658330  0.78049949  0.48623616    -0.60300
H1391       H  0.20226275  0.76903292  0.49681600     0.43700
H1392       H  0.25498741  0.89793018  0.50740055     0.43700
C1393       C  0.11388077  0.81806786  0.50220782    -0.05400
C1394       C  0.09456592  0.80786654  0.48079237    -0.32800
C1395       C  0.07989781  0.82072401  0.47350146     0.36400
C1396       C  0.08432035  0.84407245  0.48794582    -0.05800
C1397       C  0.10403265  0.85450241  0.50898530    -0.32700
C1398       C  0.11881077  0.84173842  0.51610716     0.36300
H1399       H  0.09098429  0.78997090  0.46951828     0.16700
O1400       O  0.06140382  0.81029912  0.45222448    -0.60200
H1401       H  0.10779384  0.87242841  0.52030872     0.16700
O1402       O  0.13705215  0.85174001  0.53763655    -0.60300
H1403       H  0.15304471  0.86832583  0.52990636     0.43700
H1404       H  0.07170866  0.81985295  0.43499956     0.43700
C1405       C  0.51322909  0.68433842  0.37024251    -0.05400
C1406       C  0.49651339  0.67206595  0.39385431    -0.32800
C1407       C  0.49911881  0.65276482  0.41021939     0.36400
C1408       C  0.01868374  0.64529224  0.40296375    -0.05800
C1409       C  0.03553490  0.65791081  0.37946433    -0.32700
C1410       C  0.03300615  0.67718713  0.36324827     0.36300
H1411       H  0.48130005  0.67740398  0.39958548     0.16700
O1412       O  0.48228217  0.64122243  0.43299288    -0.60200
H1413       H  0.05113979  0.65314005  0.37367313     0.16700
O1414       O  0.05095401  0.69004490  0.34150251    -0.60300
H1415       H  0.04531552  0.67636302  0.32656353     0.43700
H1416       H  0.49158048  0.65380134  0.44858814     0.43700
C1417       C  0.51253856  0.77217262  0.36445830    -0.05400
C1418       C  0.03176453  0.79855949  0.35536617    -0.32800
C1419       C  0.03435111  0.82135903  0.36898069     0.36400
C1420       C  0.01751615  0.81813714  0.39225637    -0.05800
C1421       C  0.49772137  0.79170995  0.40079226    -0.32700
C1422       C  0.49507316  0.76892347  0.38702722     0.36300
H1423       H  0.04539843  0.80156572  0.33806556     0.16700
O1424       O  0.05366117  0.84664571  0.35942909    -0.60200
H1425       H  0.48441664  0.78859871  0.41843981     0.16700
O1426       O  0.47532800  0.74355547  0.39585607    -0.60300
H1427       H  0.45936685  0.73911216  0.38395615     0.43700
H1428       H  0.07072581  0.85043596  0.36892373     0.43700
C1429       C  0.01395393  0.72097729  0.21738496    -0.05400
C1430       C  0.50047181  0.73324296  0.22988369    -0.32800
C1431       C  0.49891866  0.73434549  0.25899610     0.36400
C1432       C  0.51224153  0.72431197  0.27635481    -0.05800
C1433       C  0.02652683  0.71278848  0.26351499    -0.32700
C1434       C  0.02688203  0.71055181  0.23436168     0.36300
H1435       H  0.48964824  0.74054269  0.21699165     0.16700
O1436       O  0.48316703  0.74405248  0.27008356    -0.60200
H1437       H  0.03728068  0.70522042  0.27608157     0.16700
O1438       O  0.03955555  0.69780682  0.22270219    -0.60300
H1439       H  0.05840085  0.71249648  0.21854905     0.43700
H1440       H  0.46510540  0.72776739  0.27361284     0.43700
C1441       C  0.25152048  0.91916480  0.35922028    -0.05400
C1442       C  0.26924961  0.94104314  0.37584616    -0.32800
C1443       C  0.28972713  0.93995513  0.39129694     0.36400
C1444       C  0.29246387  0.91661233  0.39036776    -0.05800
C1445       C  0.27512728  0.89513849  0.37300928    -0.32700
C1446       C  0.25485361  0.89630144  0.35753388     0.36300
H1447       H  0.26703653  0.95888282  0.37701442     0.16700
O1448       O  0.30725704  0.96197212  0.40670095    -0.60200
H1449       H  0.27663817  0.87687950  0.37211281     0.16700
O1450       O  0.23720159  0.87421610  0.34225792    -0.60300
H1451       H  0.24694401  0.87583577  0.32446004     0.43700
H1452       H  0.29726609  0.96046804  0.42428616     0.43700
C1453       C  0.11989343  0.91495080  0.39680626    -0.05400
C1454       C  0.13097874  0.89850941  0.40438813    -0.32800
C1455       C  0.15181568  0.89879001  0.38859260     0.36400
C1456       C  0.16210578  0.91585504  0.36479923    -0.05800
C1457       C  0.15060963  0.93183061  0.35672393    -0.32700
C1458       C  0.12960354  0.93145245  0.37254138     0.36300
H1459       H  0.12318078  0.88500462  0.42249920     0.16700
O1460       O  0.16102109  0.88128491  0.39569454    -0.60200
H1461       H  0.15819725  0.94488838  0.33828966     0.16700
O1462       O  0.11903382  0.94750077  0.36430927    -0.60300
H1463       H  0.12948299  0.96461052  0.37473503     0.43700
H1464       H  0.17171762  0.88865040  0.41299369     0.43700
C1465       C  0.19474733  0.90150719  0.21387237    -0.05400
C1466       C  0.18609172  0.91796551  0.22663811    -0.32800
C1467       C  0.18815575  0.92166088  0.25555016     0.36400
C1468       C  0.19838768  0.90813240  0.27223446    -0.05800
C1469       C  0.20613947  0.89084698  0.25936645    -0.32700
C1470       C  0.20492560  0.88798082  0.23029961     0.36300
H1471       H  0.17944125  0.92949180  0.21391921     0.16700
O1472       O  0.18245522  0.94035382  0.26691777    -0.60200
H1473       H  0.21374144  0.88000186  0.27180126     0.16700
O1474       O  0.21392931  0.87215737  0.21808026    -0.60300
H1475       H  0.23375564  0.88433379  0.21513358     0.43700
H1476       H  0.16243799  0.93223885  0.26559484     0.43700
C1477       C  0.35728427  0.89555219  0.60560630    -0.05400
C1478       C  0.37546228  0.89182091  0.58873428    -0.32800
C1479       C  0.37358586  0.89189633  0.55934450     0.36400
C1480       C  0.35340886  0.89589276  0.54654202    -0.05800
C1481       C  0.33532836  0.89953077  0.56362050    -0.32700
C1482       C  0.33706767  0.89931334  0.59271190     0.36300
H1483       H  0.39129101  0.88916063  0.59834505     0.16700
O1484       O  0.39201222  0.88889639  0.54341266    -0.60200
H1485       H  0.31913745  0.90188578  0.55444525     0.16700
O1486       O  0.31799659  0.90145868  0.60849440    -0.60300
H1487       H  0.32261109  0.92070299  0.60652524     0.43700
H1488       H  0.38454659  0.86900508  0.54226228     0.43700
C1489       C  0.18797434  0.55405342  0.88336687    -0.05400
C1490       C  0.16864271  0.53086678  0.89830790    -0.32800
C1491       C  0.16773935  0.53030196  0.92741058     0.36400
C1492       C  0.18677369  0.55293821  0.94242472    -0.05800
C1493       C  0.20656376  0.57602285  0.92770188    -0.32700
C1494       C  0.20729368  0.57667564  0.89831725     0.36300
H1495       H  0.15320943  0.51334150  0.88741056     0.16700
O1496       O  0.14714326  0.00889961  0.94066424    -0.60200
H1497       H  0.22146200  0.59353527  0.93902816     0.16700
O1498       O  0.22674246  0.59949507  0.88453120    -0.60300
H1499       H  0.24190269  0.59594717  0.88087804     0.43700
H1500       H  0.13255696  0.01339236  0.94384412     0.43700
C1501       C  0.24784387  0.63977948  0.78158175    -0.05400
C1502       C  0.24816213  0.66362015  0.78983046    -0.32800
C1503       C  0.27245264  0.68873220  0.78941707     0.36400
C1504       C  0.29692384  0.69028921  0.78047688    -0.05800
C1505       C  0.29653182  0.66631704  0.77278856    -0.32700
C1506       C  0.27253013  0.64137182  0.77343226     0.36300
H1507       H  0.22947670  0.66291286  0.79619613     0.16700
O1508       O  0.27178693  0.71161231  0.79690435    -0.60200
H1509       H  0.31505051  0.66672795  0.76628779     0.16700
O1510       O  0.27358253  0.61868995  0.76587188    -0.60300
H1511       H  0.27710162  0.61154188  0.78347415     0.43700
H1512       H  0.27395111  0.71253635  0.81751982     0.43700
C1513       C  0.37452470  0.74560806  0.88292044    -0.05400
C1514       C  0.39707044  0.76211489  0.89961113    -0.32800
C1515       C  0.39526098  0.76039326  0.92875674     0.36400
C1516       C  0.37061796  0.74166044  0.94199754    -0.05800
C1517       C  0.34798863  0.72503051  0.92544162    -0.32700
C1518       C  0.34974282  0.72701773  0.89610795     0.36300
H1519       H  0.41614321  0.77719231  0.89009926     0.16700
O1520       O  0.41723712  0.77827787  0.94414688    -0.60200
H1521       H  0.32892381  0.71036908  0.93527900     0.16700
O1522       O  0.32732299  0.71037229  0.88061695    -0.60300
H1523       H  0.31640340  0.71960854  0.87977650     0.43700
H1524       H  0.43099178  0.77248957  0.94194690     0.43700
C1525       C  0.35620322  0.81047452  0.73312248    -0.05400
C1526       C  0.37311142  0.83793527  0.73956021    -0.32800
C1527       C  0.37409184  0.85857646  0.72256358     0.36400
C1528       C  0.35732835  0.85218583  0.69882184    -0.05800
C1529       C  0.34044405  0.82466314  0.69214350    -0.32700
C1530       C  0.33985534  0.80387335  0.70905824     0.36300
H1531       H  0.38631221  0.84355203  0.75759046     0.16700
O1532       O  0.39197620  0.88504817  0.72918232    -0.60200
H1533       H  0.32732920  0.81924761  0.67408005     0.16700
O1534       O  0.32296449  0.77728494  0.70211934    -0.60300
H1535       H  0.30589703  0.77154513  0.71280527     0.43700
H1536       H  0.40851340  0.89020157  0.71776886     0.43700
C1537       C  0.39314924  0.63904175  0.77807871    -0.05400
C1538       C  0.40555269  0.65649674  0.80059043    -0.32800
C1539       C  0.40750951  0.68207858  0.80129223     0.36400
C1540       C  0.39763140  0.69105402  0.77878757    -0.05800
C1541       C  0.38531144  0.67356635  0.75625106    -0.32700
C1542       C  0.38291673  0.64782719  0.75581179     0.36300
H1543       H  0.41340453  0.65013012  0.81800154     0.16700
O1544       O  0.41951615  0.69823237  0.82392898    -0.60200
H1545       H  0.37716588  0.67970206  0.73892254     0.16700
O1546       O  0.37067254  0.63153631  0.73332589    -0.60300
H1547       H  0.38572283  0.63545412  0.72009165     0.43700
H1548       H  0.40483259  0.69219165  0.83820584     0.43700
C1549       C  0.29041990  0.53188400  0.77404489    -0.05400
C1550       C  0.28445518  0.54447435  0.75176846    -0.32800
C1551       C  0.25993677  0.54490818  0.75113829     0.36400
C1552       C  0.24080757  0.53275819  0.77315741    -0.05800
C1553       C  0.24629111  0.51915362  0.79476123    -0.32700
C1554       C  0.27069802  0.51864061  0.79537027     0.36300
H1555       H  0.29918381  0.55474803  0.73508429     0.16700
O1556       O  0.25641924  0.05971224  0.73061553    -0.60200
H1557       H  0.23174848  0.50913302  0.81165793     0.16700
O1558       O  0.27484361  0.50483726  0.81682279    -0.60300
H1559       H  0.28098530  0.51742658  0.83281352     0.43700
H1560       H  0.24839216  0.04673921  0.71506942     0.43700
C1561       C  0.36440997  0.55320403  0.94109038    -0.05400
C1562       C  0.35783484  0.52915436  0.92722790    -0.32800
C1563       C  0.35826377  0.52832722  0.89811109     0.36400
C1564       C  0.36597367  0.55211710  0.88182593    -0.05800
C1565       C  0.37210764  0.57620823  0.89564586    -0.32700
C1566       C  0.37106357  0.57678879  0.92502318     0.36300
H1567       H  0.35289755  0.51084088  0.93908574     0.16700
O1568       O  0.35250273  0.50430856  0.88597775    -0.60200
H1569       H  0.37785830  0.59466224  0.88369195     0.16700
O1570       O  0.37650561  0.60044518  0.93775148    -0.60300
H1571       H  0.35852073  0.59909592  0.94039701     0.43700
H1572       H  0.33242015  0.49402432  0.88416900     0.43700
C1573       C  0.35731468  0.98303320  0.72358146    -0.05400
C1574       C  0.37930536  0.98832479  0.70588488    -0.32800
C1575       C  0.37978661  0.96734720  0.69133587     0.36400
C1576       C  0.35814165  0.94051619  0.69442594    -0.05800
C1577       C  0.33597945  0.93518075  0.71171194    -0.32700
C1578       C  0.33540472  0.95612881  0.72622958     0.36300
H1579       H  0.39660302  0.00868524  0.70386944     0.16700
O1580       O  0.40216814  0.97299348  0.67535879    -0.60200
H1581       H  0.31902461  0.91464341  0.71395532     0.16700
O1582       O  0.31312685  0.95009298  0.74256810    -0.60300
H1583       H  0.31600477  0.94277358  0.76040185     0.43700
H1584       H  0.40014177  0.98123854  0.65775085     0.43700
C1585       C  0.45338789  0.89767744  0.85168249    -0.05400
C1586       C  0.46738595  0.88956633  0.83343484    -0.32800
C1587       C  0.45514483  0.86316797  0.82345316     0.36400
C1588       C  0.42819092  0.84423760  0.83144040    -0.05800
C1589       C  0.41464779  0.85200125  0.85075426    -0.32700
C1590       C  0.42711809  0.87839928  0.86100896     0.36300
H1591       H  0.48756154  0.90406642  0.82575439     0.16700
O1592       O  0.46966871  0.85635928  0.80557560    -0.60200
H1593       H  0.39415485  0.83767594  0.85776384     0.16700
O1594       O  0.41325969  0.88526044  0.87969586    -0.60300
H1595       H  0.41962315  0.88318607  0.89840237     0.43700
H1596       H  0.46688825  0.86193522  0.78666477     0.43700
C1597       C  0.03636234  0.98388404  0.84989907    -0.05400
C1598       C  0.04418615  0.97192257  0.82906023    -0.32800
C1599       C  0.07087824  0.98429212  0.81932974     0.36400
C1600       C  0.09076556  0.50896687  0.83157125    -0.05800
C1601       C  0.08242511  0.52117336  0.85185498    -0.32700
C1602       C  0.05541242  0.50827833  0.86147062     0.36300
H1603       H  0.02929572  0.95303692  0.81969785     0.16700
O1604       O  0.07719568  0.97194213  0.79847879    -0.60200
H1605       H  0.09677653  0.54084067  0.86014334     0.16700
O1606       O  0.04781240  0.52067817  0.88108358    -0.60300
H1607       H  0.04876601  0.51263228  0.89930183     0.43700
H1608       H  0.08102416  0.95869456  0.80822888     0.43700
C1609       C  0.44880700  0.98216411  0.84188829    -0.05400
C1610       C  0.43308128  0.97355851  0.81754228    -0.32800
C1611       C  0.41857468  0.98609769  0.80838262     0.36400
C1612       C  0.41931910  0.50715120  0.82314739    -0.05800
C1613       C  0.43589461  0.51598190  0.84695794    -0.32700
C1614       C  0.45007551  0.00377276  0.85706987     0.36300
H1615       H  0.43238868  0.95729376  0.80533022     0.16700
O1616       O  0.40405166  0.97757686  0.78406584    -0.60200
H1617       H  0.43720327  0.53245365  0.85927992     0.16700
O1618       O  0.46528933  0.01262310  0.88092256    -0.60300
H1619       H  0.45377326  0.50070550  0.89471462     0.43700
H1620       H  0.41657014  0.98970949  0.76915384     0.43700
C1621       C  0.99628567  0.85282866  0.69535806    -0.05400
C1622       C  0.50239585  0.84108294  0.71833186    -0.32800
C1623       C  0.48165732  0.81950477  0.73380437     0.36400
C1624       C  0.45414855  0.80927254  0.72648453    -0.05800
C1625       C  0.44824054  0.82061307  0.70303507    -0.32700
C1626       C  0.46891472  0.84205041  0.68756734     0.36300
H1627       H  0.02332135  0.84905159  0.72461294     0.16700
O1628       O  0.48856144  0.80932306  0.75656821    -0.60200
H1629       H  0.42735882  0.81345069  0.69701514     0.16700
O1630       O  0.46197067  0.85372578  0.66615689    -0.60300
H1631       H  0.45586136  0.84048735  0.65074519     0.43700
H1632       H  0.49177859  0.79496504  0.74906376     0.43700
C1633       C  0.08100493  0.94417675  0.69630989    -0.05400
C1634       C  0.08760216  0.97119607  0.69129702    -0.32800
C1635       C  0.10911269  0.99256361  0.70539739     0.36400
C1636       C  0.12447753  0.98708070  0.72503684    -0.05800
C1637       C  0.11807831  0.96002952  0.72958434    -0.32700
C1638       C  0.09661206  0.93873137  0.71545691     0.36300
H1639       H  0.07580687  0.97573430  0.67661025     0.16700
O1640       O  0.11429432  0.51864420  0.70057979    -0.60200
H1641       H  0.12969183  0.95524216  0.74425961     0.16700
O1642       O  0.09177510  0.91273134  0.71959024    -0.60300
H1643       H  0.08273997  0.90692405  0.73818850     0.43700
H1644       H  0.12691399  0.52492426  0.68427046     0.43700
C1645       C  0.03932629  0.90152054  0.60489995    -0.05400
C1646       C  0.01470904  0.88891612  0.58998882    -0.32800
C1647       C  0.01465302  0.88735060  0.56076032     0.36400
C1648       C  0.03936940  0.89968512  0.54582004    -0.05800
C1649       C  0.06390470  0.91295103  0.56040168    -0.32700
C1650       C  0.06411752  0.91352321  0.58966380     0.36300
H1651       H  0.99537446  0.87981743  0.60101223     0.16700
O1652       O  0.49036767  0.87403252  0.54693855    -0.60200
H1653       H  0.08309428  0.92157450  0.54910720     0.16700
O1654       O  0.08859039  0.92375844  0.60310824    -0.60300
H1655       H  0.09832019  0.94359045  0.59907904     0.43700
H1656       H  0.48548382  0.85465720  0.54720574     0.43700
C1657       C  0.08647326  0.58517915  0.70543618    -0.05400
C1658       C  0.11405223  0.60293437  0.69886083    -0.32800
C1659       C  0.13472760  0.60308610  0.71523586     0.36400
C1660       C  0.12788629  0.58550662  0.73869591    -0.05800
C1661       C  0.10032771  0.56772189  0.74503245    -0.32700
C1662       C  0.07977328  0.56735244  0.72863281     0.36300
H1663       H  0.11954173  0.61689747  0.68118946     0.16700
O1664       O  0.16142210  0.62110951  0.70875854    -0.60200
H1665       H  0.09460176  0.55343125  0.76245512     0.16700
O1666       O  0.05315455  0.54851154  0.73457642    -0.60300
H1667       H  0.04887890  0.55425047  0.75248484     0.43700
H1668       H  0.16646393  0.61211173  0.69418386     0.43700
C1669       C  0.99835327  0.58437860  0.70247765    -0.05400
C1670       C  0.48774319  0.60135594  0.69523133    -0.32800
C1671       C  0.46633719  0.60063077  0.71092370     0.36400
C1672       C  0.45537565  0.58281537  0.73421175    -0.05800
C1673       C  0.46564647  0.56552216  0.74087932    -0.32700
C1674       C  0.48674130  0.56608201  0.72526865     0.36300
H1675       H  0.49636175  0.61549973  0.67772238     0.16700
O1676       O  0.45665562  0.61766057  0.70361178    -0.60200
H1677       H  0.45691715  0.55100778  0.75810706     0.16700
O1678       O  0.99493430  0.54761056  0.73157478    -0.60300
H1679       H  0.50387891  0.55306288  0.75015016     0.43700
H1680       H  0.46731341  0.63418278  0.71485287     0.43700
C1681       C  0.04148883  0.57748282  0.61248562    -0.05400
C1682       C  0.06605761  0.59047741  0.59707971    -0.32800
C1683       C  0.06629420  0.58919647  0.56785685     0.36400
C1684       C  0.04168476  0.57552409  0.55320387    -0.05800
C1685       C  0.01718493  0.56168198  0.56829957    -0.32700
C1686       C  0.01693505  0.56206208  0.59770546     0.36300
H1687       H  0.08522978  0.60268677  0.60755600     0.16700
O1688       O  0.09056194  0.60354915  0.55367140    -0.60200
H1689       H  0.99810433  0.55099838  0.55721794     0.16700
O1690       O  0.99271887  0.54672757  0.61174878    -0.60300
H1691       H  0.48131739  0.55485799  0.60679056     0.43700
H1692       H  0.09757977  0.59075779  0.55191459     0.43700
C1693       C  0.54045375  0.07845895  0.64333815     0.03200
C1694       C  0.52002235  0.08115097  0.65743125    -0.13000
C1695       C  0.52085971  0.08429312  0.68659935     0.00700
C1696       C  0.54328289  0.08668463  0.70136900    -0.11500
C1697       C  0.56357366  0.08365032  0.68798682     0.03200
C1698       C  0.56199029  0.07946287  0.65903915    -0.10900
H1699       H  0.50336812  0.08065106  0.64593443     0.08800
H1700       H  0.54465826  0.09043094  0.72363625     0.06300
H1701       H  0.57733805  0.07645197  0.64886132     0.06200
C1702       C  0.53885252  0.40101024  0.63693480     0.03200
C1703       C  0.51938288  0.37756070  0.65137940    -0.13000
C1704       C  0.51819913  0.37645045  0.68075077     0.00700
C1705       C  0.53791989  0.39856773  0.69579176    -0.11500
C1706       C  0.55824615  0.42176393  0.68178213     0.03200
C1707       C  0.55791302  0.42324301  0.65244162    -0.10900
H1708       H  0.50522403  0.35993963  0.63971393     0.08800
H1709       H  0.53721140  0.39793583  0.71845669     0.06300
H1710       H  0.57286209  0.44161524  0.64175713     0.06200
C1711       C  0.96398657  0.46789251  0.84913236     0.03200
C1712       C  0.99236336  0.48287271  0.85209100    -0.13000
C1713       C  0.50708300  0.46950053  0.85756976     0.00700
C1714       C  0.99304462  0.44136395  0.86220950    -0.11500
C1715       C  0.96512945  0.42599973  0.85712884     0.03200
C1716       C  0.95056532  0.43944221  0.85119171    -0.10900
H1717       H  0.50308085  0.00535787  0.84858107     0.08800
H1718       H  0.50451170  0.43107951  0.86621629     0.06300
H1719       H  0.92910573  0.42781964  0.84636673     0.06200
O1720       O  0.83247395  0.04034911  0.75347011    -0.85300
O1721       O  0.87195584  0.09238936  0.76390006    -0.82300
C1722       C  0.89070423  0.11140754  0.77734854     0.98200
O1723       O  0.90799086  0.10768926  0.79056354    -0.82400
O1724       O  0.88294856  0.07350400  0.83656699    -0.85000
C1725       C  0.86927152  0.05171601  0.85047186     1.02700
O1726       O  0.86015339  0.02916686  0.83851231    -0.77800
O1727       O  0.82502958  0.02736527  0.79766983    -0.78000
C1728       C  0.81727744  0.03312906  0.77515541     1.02600
O1729       O  0.87542790  0.02965925  0.73440613    -0.85300
O1730       O  0.91340441  0.08280987  0.74085007    -0.82400
C1731       C  0.93240322  0.08019633  0.75149910     0.98200
O1732       O  0.93172074  0.07431924  0.77706081    -0.82400
O1733       O  0.91068249  0.04412485  0.82401431    -0.85000
C1734       C  0.90365075  0.02060933  0.81519614     1.02700
O1735       O  0.88303956  0.00832968  0.79984607    -0.77800
O1736       O  0.84325467  0.50059748  0.76183291    -0.78000
C1737       C  0.85859425  0.00531251  0.74050729     1.02600
Cr1738     Cr  0.87353426  0.06054711  0.75068226     1.93700
Cr1739     Cr  0.90620381  0.07353418  0.80539559     1.93200
Cr1740     Cr  0.85453370  0.01865031  0.79844013     1.39100
O1741       O  0.87797319  0.05124800  0.78498861    -1.23000
O1742       O  0.89413225  0.22686636  0.75604389    -0.85300
O1743       O  0.84252672  0.21556309  0.76581467    -0.82300
C1744       C  0.82293189  0.21543204  0.77827687     0.98200
O1745       O  0.82573637  0.23702206  0.78882248    -0.82400
O1746       O  0.85561839  0.24258225  0.83652072    -0.85000
C1747       C  0.87590420  0.24833927  0.85172146     1.02700
O1748       O  0.89970813  0.26135699  0.84145323    -0.77800
O1749       O  0.90351299  0.22990661  0.80072961    -0.78000
C1750       C  0.89855182  0.21713901  0.77820102     1.02600
O1751       O  0.90700497  0.28084589  0.73691350    -0.85300
O1752       O  0.85381738  0.26719487  0.74147241    -0.82400
C1753       C  0.85711634  0.28924692  0.75123406     0.98200
O1754       O  0.86244333  0.29434022  0.77673618    -0.82400
O1755       O  0.88819994  0.29980038  0.82615399    -0.85000
C1756       C  0.91312437  0.31535834  0.82025024     1.02700
O1757       O  0.92562732  0.30723864  0.80490056    -0.77800
O1758       O  0.93509375  0.27781037  0.76591535    -0.78000
C1759       C  0.93097910  0.28799680  0.74400725     1.02600
Cr1760     Cr  0.87492310  0.24853464  0.75248875     1.93700
Cr1761     Cr  0.85949311  0.26782538  0.80549645     1.93200
Cr1762     Cr  0.91371729  0.26841491  0.80203956     1.39100
O1763       O  0.88259737  0.26145862  0.78677169    -1.23000
O1764       O  0.72115628  0.09395935  0.76658445    -0.85300
O1765       O  0.70749826  0.04222149  0.75375911    -0.82300
C1766       C  0.71588076  0.03486310  0.77496188     0.98200
O1767       O  0.70287969  0.02916535  0.79778673    -0.82400
O1768       O  0.67138754  0.03178134  0.84004241    -0.85000
C1769       C  0.68489013  0.05443902  0.85186367     1.02700
O1770       O  0.69266370  0.07624147  0.83809182    -0.77800
O1771       O  0.70074834  0.11029903  0.79226998    -0.78000
C1772       C  0.72194971  0.11311246  0.78024411     1.02600
O1773       O  0.67058256  0.08652192  0.74425660    -0.85300
O1774       O  0.65427370  0.03339568  0.73624518    -0.82400
C1775       C  0.64590639  0.00883303  0.74207779     0.98200
O1776       O  0.65586595  0.50323328  0.76343863    -0.82400
O1777       O  0.62658318  0.01136754  0.80319867    -0.85000
C1778       C  0.61884587  0.02341401  0.81960487     1.02700
O1779       O  0.63542575  0.04718253  0.82760664    -0.77800
O1780       O  0.64330507  0.07675839  0.78024580    -0.78000
C1781       C  0.64855482  0.08304095  0.75476025     1.02600
Cr1782     Cr  0.68747408  0.06332830  0.75264510     1.93700
Cr1783     Cr  0.66496080  0.02113490  0.79999792     1.93200
Cr1784     Cr  0.66869949  0.07625858  0.80785422     1.39100
O1785       O  0.67404555  0.05378293  0.78699337    -1.23000
C1786       C  0.85898004  0.39645359  0.63739151     0.03200
C1787       C  0.85813540  0.37471444  0.65280259    -0.13000
C1788       C  0.85688135  0.37426303  0.68231731     0.00700
C1789       C  0.85574790  0.39549723  0.69597800    -0.11500
C1790       C  0.85794410  0.41778883  0.68084590     0.03200
C1791       C  0.85986835  0.41829122  0.65168099    -0.10900
H1792       H  0.85813726  0.35814531  0.64185422     0.08800
H1793       H  0.85359525  0.39497528  0.71854443     0.06300
H1794       H  0.86113391  0.43537871  0.63998490     0.06200
C1795       C  0.70174343  0.41359405  0.30427395     0.03200
C1796       C  0.72546234  0.41701007  0.31725111    -0.13000
C1797       C  0.72907093  0.42122725  0.34612657     0.00700
C1798       C  0.70927508  0.42306414  0.36198703    -0.11500
C1799       C  0.68525985  0.41924305  0.34941091     0.03200
C1800       C  0.68159366  0.41436020  0.32066608    -0.10900
H1801       H  0.74108701  0.41612508  0.30501151     0.08800
H1802       H  0.71210092  0.42638250  0.38430003     0.06300
H1803       H  0.66251881  0.41014834  0.31131874     0.06200
C1804       C  0.01173901  0.22471068  0.30738107     0.03200
C1805       C  0.01288167  0.24688588  0.32142537    -0.13000
C1806       C  0.01168079  0.24712504  0.35082318     0.00700
C1807       C  0.01087609  0.22551616  0.36631191    -0.11500
C1808       C  0.01056662  0.20358284  0.35275063     0.03200
C1809       C  0.00993810  0.20291142  0.32337800    -0.10900
H1810       H  0.01496862  0.26419861  0.30956480     0.08800
H1811       H  0.01169815  0.22635501  0.38894697     0.06300
H1812       H  0.00821728  0.18533099  0.31294994     0.06200
C1813       C  0.62711925  0.30312232  0.51320570     0.03200
C1814       C  0.65551083  0.31746609  0.51334901    -0.13000
C1815       C  0.67013075  0.30402386  0.51848584     0.00700
C1816       C  0.65587917  0.27613618  0.52516011    -0.11500
C1817       C  0.62734544  0.26100952  0.52289409     0.03200
C1818       C  0.61319399  0.27491843  0.51716685    -0.10900
H1819       H  0.66617634  0.33880032  0.50740697     0.08800
H1820       H  0.66718201  0.26590750  0.53006972     0.06300
H1821       H  0.59144354  0.26387178  0.51408485     0.06200
O1822       O  0.99798088  0.37763828  0.42130377    -0.85300
O1823       O  0.53896621  0.42920447  0.42862208    -0.82300
C1824       C  0.55845873  0.44878817  0.44061112     0.98200
O1825       O  0.57684777  0.44567452  0.45230685    -0.82400
O1826       O  0.55374555  0.41567862  0.50057595    -0.85000
C1827       C  0.53933845  0.39560535  0.51636660     1.02700
O1828       O  0.52792736  0.37170119  0.50700426    -0.77800
O1829       O  0.99235850  0.36887220  0.46640953    -0.78000
C1830       C  0.98405970  0.37328875  0.44359528     1.02600
O1831       O  0.53846617  0.36380229  0.40253222    -0.85300
O1832       O  0.57829797  0.41684795  0.40508694    -0.82400
C1833       C  0.59732265  0.41402414  0.41534871     0.98200
O1834       O  0.59723223  0.40873818  0.44091327    -0.82400
O1835       O  0.57758894  0.38240167  0.48988235    -0.85000
C1836       C  0.56857601  0.35800914  0.48266378     1.02700
O1837       O  0.54666400  0.34553624  0.46944035    -0.77800
O1838       O  0.50702073  0.33657040  0.43201116    -0.78000
C1839       C  0.52114152  0.34007589  0.41014884     1.02600
Cr1840     Cr  0.53878031  0.39631125  0.41683849     1.93700
Cr1841     Cr  0.57415301  0.41165477  0.46944828     1.93200
Cr1842     Cr  0.52011157  0.35794463  0.46758846     1.39100
O1843       O  0.54429931  0.38889081  0.45144201    -1.23000
O1844       O  0.54108077  0.05156355  0.43439218    -0.85300
O1845       O  0.99922631  0.06191719  0.42745242    -0.82300
C1846       C  0.98460658  0.05167886  0.44919532     0.98200
O1847       O  0.99274928  0.06291376  0.47248466    -0.82400
O1848       O  0.52837481  0.09162772  0.51435993    -0.85000
C1849       C  0.54096118  0.07972364  0.52278194     1.02700
O1850       O  0.55623965  0.07596000  0.50642120    -0.77800
O1851       O  0.57984494  0.07336142  0.45641491    -0.78000
C1852       C  0.56183167  0.05216801  0.44460943     1.02600
O1853       O  0.57943817  0.10445758  0.41191113    -0.85300
O1854       O  0.53884107  0.11677248  0.41056539    -0.82400
C1855       C  0.52179762  0.12318440  0.41896721     0.98200
O1856       O  0.50871424  0.11292872  0.44157946    -0.82400
O1857       O  0.54741695  0.14023054  0.48166178    -0.85000
C1858       C  0.56931256  0.14820006  0.49480334     1.02700
O1859       O  0.57897892  0.13271995  0.49896370    -0.77800
O1860       O  0.59812197  0.13081897  0.44757300    -0.78000
C1861       C  0.59798248  0.12647751  0.42182264     1.02600
Cr1862     Cr  0.54000177  0.08449053  0.42379400     1.93700
Cr1863     Cr  0.52105248  0.10134827  0.47614044     1.93200
Cr1864     Cr  0.57595025  0.10252180  0.47582497     1.39100
O1865       O  0.54552833  0.09588501  0.45878088    -1.23000
O1866       O  0.87318565  0.43831109  0.42157135    -0.85300
O1867       O  0.88473263  0.39764891  0.42955247    -0.82300
C1868       C  0.88441812  0.37761947  0.44144331     0.98200
O1869       O  0.86298715  0.35924491  0.45329977    -0.82400
O1870       O  0.85515992  0.38135644  0.50136118    -0.85000
C1871       C  0.84841696  0.39497065  0.51672594     1.02700
O1872       O  0.83527571  0.40564023  0.50653712    -0.77800
O1873       O  0.86797119  0.44277497  0.46627619    -0.78000
C1874       C  0.88164746  0.45173900  0.44394525     1.02600
O1875       O  0.81969127  0.39771804  0.40164908    -0.85300
O1876       O  0.83364715  0.35838499  0.40523060    -0.82400
C1877       C  0.81166014  0.33895232  0.41499431     0.98200
O1878       O  0.80585789  0.33803866  0.44053893    -0.82400
O1879       O  0.79812128  0.35585837  0.48984154    -0.85000
C1880       C  0.78227051  0.36478727  0.48388843     1.02700
O1881       O  0.79042274  0.38649958  0.46982832    -0.77800
O1882       O  0.82130390  0.42743667  0.43120682    -0.78000
C1883       C  0.81243892  0.41438219  0.40878688     1.02600
Cr1884     Cr  0.85175680  0.39758336  0.41710134     1.93700
Cr1885     Cr  0.83124366  0.36090213  0.46972818     1.93200
Cr1886     Cr  0.82950016  0.41398669  0.46715728     1.39100
O1887       O  0.83768006  0.39085597  0.45143099    -1.23000
C1888       C  0.70614794  0.22867429  0.30735763     0.03200
C1889       C  0.68363161  0.20994208  0.32374788    -0.13000
C1890       C  0.68427950  0.21045039  0.35308256     0.00700
C1891       C  0.70730538  0.23103910  0.36625630    -0.11500
C1892       C  0.72962802  0.25057665  0.35055603     0.03200
C1893       C  0.72938276  0.24873155  0.32122429    -0.10900
H1894       H  0.66520856  0.19489962  0.31375080     0.08800
H1895       H  0.70804798  0.23190372  0.38889378     0.06300
H1896       H  0.74718243  0.26317157  0.30947984     0.06200
C1897       C  0.86625902  0.05272063  0.97155861     0.03200
C1898       C  0.84485318  0.03099764  0.98618032    -0.13000
C1899       C  0.84491508  0.02932004  0.01541604     0.00700
C1900       C  0.86677360  0.04955676  0.03022533    -0.11500
C1901       C  0.88866312  0.07129355  0.01604410     0.03200
C1902       C  0.88821764  0.07274210  0.98659285    -0.10900
H1903       H  0.82582265  0.51553385  0.97541403     0.08800
H1904       H  0.86622455  0.04876656  0.05289023     0.06300
H1905       H  0.90520580  0.08911530  0.97534673     0.06200
C1906       C  0.86615772  0.23513711  0.97236460     0.03200
C1907       C  0.88618064  0.23306126  0.98775169    -0.13000
C1908       C  0.88586063  0.23291619  0.01704343     0.00700
C1909       C  0.86440850  0.23357514  0.03103769    -0.11500
C1910       C  0.84362333  0.23473718  0.01610153     0.03200
C1911       C  0.84470960  0.23562709  0.98668346    -0.10900
H1912       H  0.90204971  0.23142175  0.97687240     0.08800
H1913       H  0.86403135  0.23348909  0.05371583     0.06300
H1914       H  0.82891399  0.23665882  0.97494725     0.06200
C1915       C  0.78827224  0.12434992  0.19264463     0.03200
C1916       C  0.81647010  0.13758148  0.19687562    -0.13000
C1917       C  0.83115484  0.12409405  0.19207584     0.00700
C1918       C  0.81668977  0.09626256  0.18621782    -0.11500
C1919       C  0.78815327  0.08172735  0.18607445     0.03200
C1920       C  0.77406370  0.09608322  0.18924005    -0.10900
H1921       H  0.82721585  0.15907249  0.20129813     0.08800
H1922       H  0.82762048  0.08623546  0.17957273     0.06300
H1923       H  0.75218300  0.08562094  0.18703191     0.06200
O1924       O  0.54389762  0.24736605  0.09978503    -0.85300
O1925       O  0.53186822  0.19513790  0.09127692    -0.82300
C1926       C  0.54132749  0.19005462  0.11308642     0.98200
O1927       O  0.52904446  0.18619670  0.13617655    -0.82400
O1928       O  0.49939243  0.19279597  0.17815552    -0.85000
C1929       C  0.51118852  0.21702038  0.18677967     1.02700
O1930       O  0.51625101  0.23661580  0.17039757    -0.77800
O1931       O  0.52189007  0.26468375  0.12083694    -0.78000
C1932       C  0.54368445  0.26741158  0.11037170     1.02600
O1933       O  0.49225339  0.23598422  0.07610500    -0.85300
O1934       O  0.47840504  0.18315043  0.07379743    -0.82400
C1935       C  0.97050347  0.15917700  0.08170018     0.98200
O1936       O  0.97938085  0.15462893  0.10436679    -0.82400
O1937       O  0.95173346  0.16545544  0.14490897    -0.85000
C1938       C  0.94378914  0.17925219  0.15826884     1.02700
O1939       O  0.95947003  0.20424547  0.16227540    -0.77800
O1940       O  0.96422084  0.22694467  0.11115756    -0.78000
C1941       C  0.96948184  0.23157736  0.08548275     1.02600
Cr1942     Cr  0.51072067  0.21491213  0.08788660     1.93700
Cr1943     Cr  0.99063853  0.17708191  0.13956260     1.93200
Cr1944     Cr  0.99114031  0.23155080  0.13965619     1.39100
O1945       O  0.49764967  0.20784593  0.12258217    -1.23000
O1946       O  0.71886749  0.38188860  0.09001533    -0.85300
O1947       O  0.66645062  0.36923859  0.09855606    -0.82300
C1948       C  0.64614598  0.36889427  0.10957255     0.98200
O1949       O  0.64853982  0.39012493  0.12075011    -0.82400
O1950       O  0.67737609  0.39719963  0.16950187    -0.85000
C1951       C  0.69735964  0.40310718  0.18515903     1.02700
O1952       O  0.72141472  0.41519919  0.17558487    -0.77800
O1953       O  0.72686094  0.38419681  0.13498767    -0.78000
C1954       C  0.72317770  0.37208582  0.11213497     1.02600
O1955       O  0.73069104  0.43538059  0.07128605    -0.85300
O1956       O  0.67722247  0.42033889  0.07396435    -0.82400
C1957       C  0.68074468  0.44258575  0.08320720     0.98200
O1958       O  0.68520781  0.44773720  0.10869818    -0.82400
O1959       O  0.70936405  0.45426190  0.15827154    -0.85000
C1960       C  0.73433474  0.46989165  0.15283427     1.02700
O1961       O  0.74808830  0.46158251  0.13983705    -0.77800
O1962       O  0.75852307  0.43264215  0.10096547    -0.78000
C1963       C  0.75454489  0.44281969  0.07896247     1.02600
Cr1964     Cr  0.69881774  0.40260399  0.08598890     1.93700
Cr1965     Cr  0.68164643  0.42162098  0.13785388     1.93200
Cr1966     Cr  0.73642008  0.42265399  0.13661079     1.39100
O1967       O  0.70550133  0.41542278  0.12038932    -1.23000
O1968       O  0.65869100  0.19608615  0.09055583    -0.85300
O1969       O  0.69931195  0.24863334  0.09816797    -0.82300
C1970       C  0.71940491  0.26835822  0.10938655     0.98200
O1971       O  0.73790510  0.26524706  0.12073010    -0.82400
O1972       O  0.71572564  0.23615428  0.17008875    -0.85000
C1973       C  0.70143908  0.21607155  0.18609881     1.02700
O1974       O  0.68982859  0.19225643  0.17647432    -0.77800
O1975       O  0.65336758  0.18675539  0.13545387    -0.78000
C1976       C  0.64443351  0.19058768  0.11274490     1.02600
O1977       O  0.70027557  0.18383478  0.07194179    -0.85300
O1978       O  0.73916707  0.23693176  0.07423607    -0.82400
C1979       C  0.75793635  0.23323682  0.08368716     0.98200
O1980       O  0.75862057  0.22852431  0.10936013    -0.82400
O1981       O  0.74069192  0.20411765  0.15993709    -0.85000
C1982       C  0.73115523  0.17908535  0.15568376     1.02700
O1983       O  0.70965625  0.16563800  0.14193399    -0.77800
O1984       O  0.67061358  0.15545339  0.10237082    -0.78000
C1985       C  0.68445507  0.15983603  0.08009571     1.02600
Cr1986     Cr  0.69971710  0.21577894  0.08639203     1.93700
Cr1987     Cr  0.73595999  0.23195530  0.13847699     1.93200
Cr1988     Cr  0.68245822  0.17742890  0.13767289     1.39100
O1989       O  0.70594409  0.20850629  0.12102752    -1.23000
C1990       C  0.68622489  0.05324554  0.97267200     0.03200
C1991       C  0.68487050  0.03108750  0.98746081    -0.13000
C1992       C  0.68237215  0.02936884  0.01663865     0.00700
C1993       C  0.68112526  0.05008134  0.03115142    -0.11500
C1994       C  0.68308298  0.07271222  0.01674483     0.03200
C1995       C  0.68561407  0.07413829  0.98741489    -0.10900
H1996       H  0.68569759  0.51456125  0.97732828     0.08800
H1997       H  0.67916411  0.04884035  0.05375951     0.06300
H1998       H  0.68635673  0.09112214  0.97600877     0.06200
C1999       C  0.68278868  0.13713299  0.06343205    -0.05400
C2000       C  0.70296815  0.14291066  0.04301744    -0.32800
C2001       C  0.70324243  0.12219704  0.02782991     0.36400
C2002       C  0.68287228  0.09498843  0.03244568    -0.05800
C2003       C  0.66262897  0.08906545  0.05275047    -0.32700
C2004       C  0.66242220  0.10983053  0.06813424     0.36300
H2005       H  0.71914664  0.16359773  0.03920678     0.16700
O2006       O  0.72401650  0.12874865  0.00906053    -0.60200
H2007       H  0.64681216  0.06823126  0.05660672     0.16700
O2008       O  0.64234478  0.10310070  0.08780302    -0.60300
H2009       H  0.62752447  0.10398218  0.07770921     0.43700
H2010       H  0.73785311  0.12653047  0.01962205     0.43700
C2011       C  0.72370836  0.34627024  0.11098536    -0.05400
C2012       C  0.71062419  0.32839561  0.08890247    -0.32800
C2013       C  0.70933547  0.30317325  0.08793155     0.36400
C2014       C  0.72146379  0.29539632  0.10916917    -0.05800
C2015       C  0.73512836  0.31350398  0.13088412    -0.32700
C2016       C  0.73618547  0.33864203  0.13201806     0.36300
H2017       H  0.70079800  0.33370898  0.07254981     0.16700
O2018       O  0.69604586  0.28626930  0.06614237    -0.64400
H2019       H  0.74451209  0.30789911  0.14745445     0.16700
O2020       O  0.74922592  0.35540145  0.15397173    -0.60300
H2021       H  0.76832725  0.36700629  0.14755670     0.43700
H2022       H  0.71036087  0.29034069  0.05189331     0.43700
C2023       C  0.68221304  0.50648911  0.03321102    -0.05400
C2024       C  0.66353964  0.47930623  0.02680851    -0.32800
C2025       C  0.66293945  0.45789020  0.04244216     0.36400
C2026       C  0.68125376  0.46369867  0.06459009    -0.05800
C2027       C  0.70069397  0.49079860  0.06989267    -0.32700
C2028       C  0.70065260  0.01182146  0.05404275     0.36300
H2029       H  0.64901297  0.47474345  0.01014500     0.16700
O2030       O  0.64408963  0.43157797  0.03636653    -0.60200
H2031       H  0.71489403  0.99491066  0.08528892     0.16700
O2032       O  0.71925943  0.03793462  0.06115278    -0.60300
H2033       H  0.73511941  0.04324633  0.04859475     0.43700
H2034       H  0.62808616  0.42717681  0.04836113     0.43700
C2035       C  0.56686346  0.18854797  0.11180020    -0.05400
C2036       C  0.57571466  0.18100659  0.13600276    -0.32800
C2037       C  0.60031839  0.18085513  0.13636277     0.36400
C2038       C  0.61715040  0.18862404  0.11221777    -0.05800
C2039       C  0.60798494  0.19544977  0.08771462    -0.32700
C2040       C  0.58322224  0.19551799  0.08735550     0.36300
H2041       H  0.56363611  0.17540775  0.15506574     0.16700
O2042       O  0.60786133  0.17358664  0.16080283    -0.60200
H2043       H  0.62030081  0.20132361  0.06880950     0.16700
O2044       O  0.57545754  0.20270598  0.06301170    -0.60300
H2045       H  0.58418724  0.22278646  0.06340108     0.43700
H2046       H  0.60006442  0.15363686  0.15981914     0.43700
C2047       C  0.56911674  0.29410433  0.10971883    -0.05400
C2048       C  0.59084936  0.29723809  0.09292259    -0.32800
C2049       C  0.61563231  0.32147139  0.09230082     0.36400
C2050       C  0.61942791  0.34346235  0.10891940    -0.05800
C2051       C  0.59757467  0.34057954  0.12543536    -0.32700
C2052       C  0.57263128  0.31613545  0.12603845     0.36300
H2053       H  0.58876045  0.28073675  0.08008440     0.16700
O2054       O  0.63606651  0.32316506  0.07548325    -0.60200
H2055       H  0.59995746  0.35710776  0.13840245     0.16700
O2056       O  0.55208861  0.31395187  0.14299549    -0.60300
H2057       H  0.55473905  0.30709790  0.16124421     0.43700
H2058       H  0.63356607  0.32992770  0.05711063     0.43700
C2059       C  0.74572633  0.16583977  0.16690822    -0.05400
C2060       C  0.77266439  0.17572466  0.15852473    -0.32800
C2061       C  0.78697327  0.16295910  0.16746871     0.36400
C2062       C  0.77462005  0.14035494  0.18614062    -0.05800
C2063       C  0.74786116  0.13127975  0.19554742    -0.32700
C2064       C  0.73331023  0.14368579  0.18576763     0.36300
H2065       H  0.78236929  0.19284696  0.14405665     0.16700
O2066       O  0.81212108  0.17132149  0.15586573    -0.60200
H2067       H  0.73800125  0.11414988  0.20998262     0.16700
O2068       O  0.70727105  0.13449007  0.19523962    -0.60300
H2069       H  0.69543577  0.12004312  0.18211007     0.43700
H2070       H  0.82441395  0.18922758  0.16421356     0.43700
C2071       C  0.74773033  0.99826365  0.16026693    -0.05400
C2072       C  0.76991438  0.00781400  0.17834745    -0.32800
C2073       C  0.78247721  0.03452037  0.18803390     0.36400
C2074       C  0.77354814  0.05246812  0.17855582    -0.05800
C2075       C  0.75106013  0.04250790  0.16058772    -0.32700
C2076       C  0.73771585  0.01548250  0.15222137     0.36300
H2077       H  0.77711406  0.99433161  0.18549571     0.16700
O2078       O  0.80260198  0.04251764  0.20766933    -0.60200
H2079       H  0.74391554  0.05571040  0.15249315     0.16700
O2080       O  0.71543741  0.00635925  0.13533330    -0.60300
H2081       H  0.69976827  0.00069725  0.14826293     0.43700
H2082       H  0.81800453  0.04224416  0.19812255     0.43700
C2083       C  0.91594717  0.16638180  0.16948695    -0.05400
C2084       C  0.90502025  0.14166611  0.18430002    -0.32800
C2085       C  0.87799740  0.12861780  0.19395661     0.36400
C2086       C  0.86120048  0.13979762  0.18762182    -0.05800
C2087       C  0.87287167  0.16527434  0.17385848    -0.32700
C2088       C  0.90010394  0.17881431  0.16551410     0.36300
H2089       H  0.91752081  0.13256122  0.18856325     0.16700
O2090       O  0.86838987  0.10542167  0.21015179    -0.60200
H2091       H  0.86072145  0.17442317  0.16832626     0.16700
O2092       O  0.91053428  0.20342482  0.15181515    -0.60300
H2093       H  0.91666981  0.21708134  0.16681609     0.43700
H2094       H  0.86942029  0.09182433  0.19817935     0.43700
C2095       C  0.82050488  0.23401802  0.03166576    -0.05400
C2096       C  0.80751697  0.21425908  0.05282403    -0.32800
C2097       C  0.78681770  0.21365953  0.06918083     0.36400
C2098       C  0.77874780  0.23323355  0.06492636    -0.05800
C2099       C  0.79089584  0.25245122  0.04308715    -0.32700
C2100       C  0.81172494  0.25298728  0.02650856     0.36300
H2101       H  0.81348798  0.19912259  0.05672996     0.16700
O2102       O  0.77444354  0.19363131  0.08928130    -0.60200
H2103       H  0.78484786  0.26755652  0.03943937     0.16700
O2104       O  0.82446730  0.27308679  0.00654654    -0.60300
H2105       H  0.81151950  0.26770146  0.99078344     0.43700
H2106       H  0.75775838  0.17922362  0.08038830     0.43700
C2107       C  0.90777132  0.23190323  0.03318414    -0.05400
C2108       C  0.90070553  0.21326679  0.05552040    -0.32800
C2109       C  0.92071719  0.21263786  0.07201409     0.36400
C2110       C  0.94851291  0.23117750  0.06673273    -0.05800
C2111       C  0.95574774  0.24907663  0.04368051    -0.32700
C2112       C  0.93562579  0.24967289  0.02705925     0.36300
H2113       H  0.87950032  0.19899347  0.06014982     0.16700
O2114       O  0.91282794  0.19353364  0.09314010    -0.60200
H2115       H  0.97698847  0.26319899  0.03907652     0.16700
O2116       O  0.94343346  0.26824164  0.00542127    -0.60300
H2117       H  0.94305566  0.28411362  0.01329080     0.43700
H2118       H  0.91393370  0.17814836  0.08498440     0.43700
C2119       C  0.77753529  0.46381070  0.06215860    -0.05400
C2120       C  0.77225806  0.47900228  0.04219227    -0.32800
C2121       C  0.79491254  0.99923895  0.02469244     0.36400
C2122       C  0.82199239  0.00648152  0.03054539    -0.05800
C2123       C  0.82576202  0.49111449  0.05097553    -0.32700
C2124       C  0.80463237  0.47003427  0.06645458     0.36300
H2125       H  0.75170878  0.47506054  0.03885792     0.16700
O2126       O  0.78914055  0.01389199  0.00558853    -0.60200
H2127       H  0.84648925  0.49564980  0.05441784     0.16700
O2128       O  0.81071469  0.45552563  0.08539988    -0.60300
H2129       H  0.81608962  0.46645774  0.10264784     0.43700
H2130       H  0.78084961  0.00170847  0.98947390     0.43700
C2131       C  0.95078892  0.13659537  0.06401253    -0.05400
C2132       C  0.94209165  0.10948040  0.07162450    -0.32800
C2133       C  0.92258733  0.08799208  0.05579049     0.36400
C2134       C  0.91102614  0.09336155  0.03207940    -0.05800
C2135       C  0.92015046  0.12040618  0.02416754    -0.32700
C2136       C  0.93970989  0.14184318  0.03973608     0.36300
H2137       H  0.95032808  0.10484719  0.08997590     0.16700
O2138       O  0.91504065  0.06185429  0.06371456    -0.60200
H2139       H  0.91148202  0.12507756  0.00619623     0.16700
O2140       O  0.94764633  0.16786719  0.03093232    -0.60300
H2141       H  0.93356554  0.17169807  0.03830192     0.43700
H2142       H  0.92667196  0.05707622  0.05239687     0.43700
C2143       C  0.70494333  0.22641666  0.27602447    -0.05400
C2144       C  0.69048202  0.20049582  0.26418644    -0.32800
C2145       C  0.68765098  0.19707553  0.23527771     0.36400
C2146       C  0.70051941  0.21975338  0.21685806    -0.05800
C2147       C  0.71497620  0.24577044  0.22845911    -0.32700
C2148       C  0.71712274  0.24927196  0.25764182     0.36300
H2149       H  0.68140459  0.18240330  0.27736982     0.16700
O2150       O  0.67289781  0.17115617  0.22540461    -0.60200
H2151       H  0.72497874  0.26357236  0.21489142     0.16700
O2152       O  0.73028377  0.27516326  0.26780041    -0.60300
H2153       H  0.74980488  0.28249802  0.26318701     0.43700
H2154       H  0.65402599  0.16776088  0.22369835     0.43700
C2155       C  0.79172339  0.31756470  0.39659291    -0.05400
C2156       C  0.79902632  0.30214803  0.37964096    -0.32800
C2157       C  0.77920552  0.28048678  0.36394330     0.36400
C2158       C  0.75179944  0.27416799  0.36513120    -0.05800
C2159       C  0.74490342  0.29031366  0.38126388    -0.32700
C2160       C  0.76452653  0.31178102  0.39690823     0.36300
H2161       H  0.81987842  0.30635777  0.37925245     0.16700
O2162       O  0.78649680  0.26474961  0.34879793    -0.60200
H2163       H  0.72405344  0.28614169  0.38185013     0.16700
O2164       O  0.75727582  0.32783509  0.41164401    -0.60300
H2165       H  0.74277899  0.31546109  0.42491191     0.43700
H2166       H  0.79433821  0.27503571  0.33107044     0.43700
C2167       C  0.90749607  0.47826432  0.44423304    -0.05400
C2168       C  0.91334403  0.49520859  0.46744076    -0.32800
C2169       C  0.93772613  0.01883091  0.46834437     0.36400
C2170       C  0.95771057  0.02653058  0.44716379    -0.05800
C2171       C  0.95167875  0.51113032  0.42424684    -0.32700
C2172       C  0.92700915  0.48654152  0.42246182     0.36300
H2173       H  0.89875661  0.48947460  0.48444990     0.16700
O2174       O  0.94200253  0.03495731  0.49105372    -0.60200
H2175       H  0.96650946  0.51676836  0.40749413     0.16700
O2176       O  0.92282763  0.47023457  0.39995008    -0.60300
H2177       H  0.91572958  0.47728207  0.38503734     0.43700
H2178       H  0.94793261  0.02701163  0.50620967     0.43700
C2179       C  0.66111909  0.18907332  0.36990670    -0.05400
C2180       C  0.64977214  0.16155421  0.36286405    -0.32800
C2181       C  0.62890408  0.14092620  0.37918503     0.36400
C2182       C  0.61942044  0.14755240  0.40341527    -0.05800
C2183       C  0.63026022  0.17506395  0.41002744    -0.32700
C2184       C  0.65056971  0.19568560  0.39335362     0.36300
H2185       H  0.65750605  0.15594439  0.34494186     0.16700
O2186       O  0.61887372  0.11433606  0.37200053    -0.60200
H2187       H  0.62258175  0.18067884  0.42798315     0.16700
O2188       O  0.65969937  0.22225388  0.40001925    -0.60300
H2189       H  0.64855405  0.22775521  0.38868097     0.43700
H2190       H  0.60504318  0.11079709  0.35749535     0.43700
C2191       C  0.95790545  0.37321894  0.44283756    -0.05400
C2192       C  0.95189834  0.38462438  0.41956743    -0.32800
C2193       C  0.92795136  0.38595452  0.41873833     0.36400
C2194       C  0.90931411  0.37554112  0.44130771    -0.05800
C2195       C  0.91495988  0.36365929  0.46432103    -0.32700
C2196       C  0.93914632  0.36276652  0.46542772     0.36300
H2197       H  0.96601175  0.39297489  0.40207009     0.16700
O2198       O  0.92297065  0.39744608  0.39570500    -0.60200
H2199       H  0.90090160  0.35567036  0.48190250     0.16700
O2200       O  0.94401279  0.35134789  0.48859573    -0.60300
H2201       H  0.95173948  0.36599250  0.50259326     0.43700
H2202       H  0.91173164  0.38204901  0.38326789     0.43700
C2203       C  0.55952369  0.47547994  0.44071226    -0.05400
C2204       C  0.58155612  0.49821566  0.45287524    -0.32800
C2205       C  0.58144999  0.02260629  0.46010061     0.36400
C2206       C  0.56490863  0.02789179  0.44201217    -0.05800
C2207       C  0.54974912  0.00883210  0.42158647    -0.32700
C2208       C  0.53811146  0.47839114  0.42926132     0.36300
H2209       H  0.59822539  0.49657603  0.46184535     0.16700
O2210       O  0.59671615  0.04076080  0.48026821    -0.60200
H2211       H  0.53752620  0.01275259  0.40687783     0.16700
O2212       O  0.51605079  0.45705259  0.41704165    -0.60300
H2213       H  0.50222298  0.44856187  0.43219869     0.43700
H2214       H  0.61787695  0.55353761  0.45126383     0.43700
C2215       C  0.61311198  0.23088651  0.52064583    -0.05400
C2216       C  0.62634685  0.21908606  0.50654100    -0.32800
C2217       C  0.61243403  0.19181517  0.49940925     0.36400
C2218       C  0.58445665  0.17598729  0.50507967    -0.05800
C2219       C  0.57127840  0.18695762  0.52038032    -0.32700
C2220       C  0.58554874  0.21411583  0.52877162     0.36300
H2221       H  0.64726086  0.23120421  0.49956799     0.16700
O2222       O  0.62595927  0.18134700  0.48499259    -0.60200
H2223       H  0.54994839  0.17444343  0.52589551     0.16700
O2224       O  0.57268425  0.22389393  0.54539512    -0.60300
H2225       H  0.55700455  0.22202956  0.53442895     0.43700
H2226       H  0.63442759  0.17543637  0.49957073     0.43700
C2227       C  0.69976897  0.31849459  0.51247146    -0.05400
C2228       C  0.71605278  0.34561947  0.52073476    -0.32800
C2229       C  0.74292969  0.36118264  0.51116932     0.36400
C2230       C  0.75410761  0.34937629  0.49392329    -0.05800
C2231       C  0.73848730  0.32203141  0.48683963    -0.32700
C2232       C  0.71133103  0.30671756  0.49538597     0.36300
H2233       H  0.70766924  0.35499003  0.53402543     0.16700
O2234       O  0.75835479  0.38760207  0.51942919    -0.60200
H2235       H  0.74715934  0.31273220  0.47385985     0.16700
O2236       O  0.69576317  0.28108895  0.48501390    -0.60300
H2237       H  0.70178114  0.26963968  0.49508419     0.43700
H2238       H  0.75384669  0.39833907  0.50617664     0.43700
C2239       C  0.61215663  0.31723842  0.50564079    -0.05400
C2240       C  0.59326481  0.30725276  0.48386742    -0.32800
C2241       C  0.57905710  0.32040536  0.47601880     0.36400
C2242       C  0.58347837  0.34385265  0.49027427    -0.05800
C2243       C  0.60259701  0.35395457  0.51188892    -0.32700
C2244       C  0.61695223  0.34085458  0.51956847     0.36300
H2245       H  0.58981979  0.28940566  0.47258251     0.16700
O2246       O  0.56110575  0.31024751  0.45425214    -0.60200
H2247       H  0.60623455  0.37188107  0.52313283     0.16700
O2248       O  0.63478126  0.35057440  0.54146437    -0.60300
H2249       H  0.65106999  0.36703053  0.53397723     0.43700
H2250       H  0.57194607  0.31966143  0.43723928     0.43700
C2251       C  0.01243646  0.18212326  0.36917130    -0.05400
C2252       C  0.99618553  0.17044453  0.39321724    -0.32800
C2253       C  0.99859134  0.15102499  0.40957312     0.36400
C2254       C  0.51746524  0.14280067  0.40188150    -0.05800
C2255       C  0.53353550  0.15445830  0.37770137    -0.32700
C2256       C  0.53124465  0.17388018  0.36150373     0.36300
H2257       H  0.98159023  0.17645988  0.39941218     0.16700
O2258       O  0.98238652  0.14028103  0.43290635    -0.60200
H2259       H  0.54849699  0.14895435  0.37143592     0.16700
O2260       O  0.54869176  0.18592234  0.33920880    -0.60300
H2261       H  0.54246075  0.17181447  0.32465765     0.43700
H2262       H  0.99230261  0.15319829  0.44807126     0.43700
C2263       C  0.01295154  0.27075993  0.36534066    -0.05400
C2264       C  0.53250065  0.29723590  0.35691123    -0.32800
C2265       C  0.53499947  0.31987641  0.37082869     0.36400
C2266       C  0.51764440  0.31645576  0.39370809    -0.05800
C2267       C  0.99768330  0.28992961  0.40175029    -0.32700
C2268       C  0.99514801  0.26727924  0.38767781     0.36300
H2269       H  0.54645181  0.30043260  0.33986622     0.16700
O2270       O  0.55473396  0.34522832  0.36191665    -0.60200
H2271       H  0.98401755  0.28664156  0.41910363     0.16700
O2272       O  0.97510000  0.24182416  0.39589157    -0.60300
H2273       H  0.95926950  0.23791525  0.38400599     0.43700
H2274       H  0.57142045  0.34874985  0.37204362     0.43700
C2275       C  0.51472808  0.22176158  0.21706249    -0.05400
C2276       C  0.00094993  0.23352572  0.22995523    -0.32800
C2277       C  0.99944120  0.23426478  0.25911097     0.36400
C2278       C  0.01310935  0.22440256  0.27613368    -0.05800
C2279       C  0.52766010  0.21334703  0.26294616    -0.32700
C2280       C  0.52803366  0.21150179  0.23372550     0.36300
H2281       H  0.98978923  0.24062311  0.21732937     0.16700
O2282       O  0.98332077  0.24335123  0.27059569    -0.60200
H2283       H  0.53856547  0.20581294  0.27531819     0.16700
O2284       O  0.54101793  0.19922546  0.22170456    -0.60300
H2285       H  0.55957027  0.21423106  0.21701946     0.43700
H2286       H  0.96543384  0.22679896  0.27400684     0.43700
C2287       C  0.75199005  0.42073953  0.36025683    -0.05400
C2288       C  0.77075302  0.44305041  0.37576000    -0.32800
C2289       C  0.79120503  0.44175262  0.39107402     0.36400
C2290       C  0.79288427  0.41779317  0.39111675    -0.05800
C2291       C  0.77450393  0.39584755  0.37488314    -0.32700
C2292       C  0.75423172  0.39718999  0.35957604     0.36300
H2293       H  0.76938435  0.46140034  0.37614635     0.16700
O2294       O  0.80978542  0.46415536  0.40532102    -0.60200
H2295       H  0.77521704  0.37713353  0.37477806     0.16700
O2296       O  0.73556739  0.37471784  0.34545352    -0.60300
H2297       H  0.74455398  0.37525554  0.32745566     0.43700
H2298       H  0.80048223  0.46389899  0.42299790     0.43700
C2299       C  0.61970839  0.41600018  0.39782506    -0.05400
C2300       C  0.63167057  0.40043933  0.40578987    -0.32800
C2301       C  0.65306275  0.40149580  0.39033127     0.36400
C2302       C  0.66306585  0.41845961  0.36643829    -0.05800
C2303       C  0.65091074  0.43378790  0.35812834    -0.32700
C2304       C  0.62935384  0.43265435  0.37365231     0.36300
H2305       H  0.62406662  0.38691893  0.42390221     0.16700
O2306       O  0.66298931  0.38466715  0.39777178    -0.60200
H2307       H  0.65828504  0.44678853  0.33963843     0.16700
O2308       O  0.61811703  0.44804363  0.36518094    -0.60300
H2309       H  0.62850767  0.46547724  0.37508755     0.43700
H2310       H  0.67364089  0.39248667  0.41500445     0.43700
C2311       C  0.69358069  0.40082646  0.21553061    -0.05400
C2312       C  0.68467489  0.41717845  0.22807884    -0.32800
C2313       C  0.68700819  0.42138767  0.25691001     0.36400
C2314       C  0.69769292  0.40840610  0.27380905    -0.05800
C2315       C  0.70541652  0.39097111  0.26120747    -0.32700
C2316       C  0.70398868  0.38765068  0.23218265     0.36300
H2317       H  0.67775215  0.42837699  0.21520283     0.16700
O2318       O  0.68122416  0.44016058  0.26790683    -0.60200
H2319       H  0.71325106  0.38042765  0.27378920     0.16700
O2320       O  0.71306019  0.37177499  0.22021791    -0.60300
H2321       H  0.73292804  0.38389606  0.21751616     0.43700
H2322       H  0.66118299  0.43190267  0.26669981     0.43700
C2323       C  0.85680614  0.39586594  0.60643915    -0.05400
C2324       C  0.87537947  0.39285046  0.58947957    -0.32800
C2325       C  0.87343306  0.39294994  0.56010260     0.36400
C2326       C  0.85276924  0.39622432  0.54741012    -0.05800
C2327       C  0.83433035  0.39921603  0.56457050    -0.32700
C2328       C  0.83616180  0.39899935  0.59366297     0.36300
H2329       H  0.89155977  0.39072817  0.59901515     0.16700
O2330       O  0.89228106  0.39074085  0.54406789    -0.60200
H2331       H  0.81782021  0.40105781  0.55544596     0.16700
O2332       O  0.81680936  0.40054272  0.60956096    -0.60300
H2333       H  0.82114163  0.41972200  0.60792624     0.43700
H2334       H  0.88549821  0.37096289  0.54296548     0.43700
C2335       C  0.68766084  0.05443655  0.88263785    -0.05400
C2336       C  0.66819509  0.03151571  0.89779706    -0.32800
C2337       C  0.66753938  0.03116639  0.92690510     0.36400
C2338       C  0.68698004  0.05372611  0.94171996    -0.05800
C2339       C  0.70677163  0.07663934  0.92678113    -0.32700
C2340       C  0.70721875  0.07710592  0.89738056     0.36300
H2341       H  0.65252086  0.01402527  0.88706377     0.16700
O2342       O  0.64746384  0.50780342  0.94097124    -0.60200
H2343       H  0.72190497  0.09413740  0.93794455     0.16700
O2344       O  0.72663711  0.09979008  0.88338090    -0.60300
H2345       H  0.74145977  0.09589148  0.87911920     0.43700
H2346       H  0.63256715  0.51189594  0.94389654     0.43700
C2347       C  0.74777997  0.13922135  0.78134221    -0.05400
C2348       C  0.74767578  0.16339031  0.78701462    -0.32800
C2349       C  0.77193700  0.18846523  0.78652833     0.36400
C2350       C  0.79677055  0.18959726  0.78014881    -0.05800
C2351       C  0.79682897  0.16528724  0.77531494    -0.32700
C2352       C  0.77279465  0.14035847  0.77603768     0.36300
H2353       H  0.72868231  0.16295742  0.79119872     0.16700
O2354       O  0.77091656  0.21171923  0.79111131    -0.60200
H2355       H  0.81569378  0.16548388  0.77098427     0.16700
O2356       O  0.77409634  0.11724209  0.77137933    -0.60300
H2357       H  0.77547277  0.11049906  0.79022022     0.43700
H2358       H  0.77181164  0.21377770  0.81171985     0.43700
C2359       C  0.87275200  0.24292712  0.88232698    -0.05400
C2360       C  0.89535868  0.25844376  0.89932310    -0.32800
C2361       C  0.89333015  0.25612164  0.92842315     0.36400
C2362       C  0.86838364  0.23769222  0.94137007    -0.05800
C2363       C  0.84566922  0.22197887  0.92451222    -0.32700
C2364       C  0.84765202  0.22462052  0.89519511     0.36300
H2365       H  0.91470050  0.27329276  0.89011492     0.16700
O2366       O  0.91544518  0.27326615  0.94409001    -0.60200
H2367       H  0.82634739  0.20759208  0.93409129     0.16700
O2368       O  0.82510984  0.20894573  0.87941263    -0.60300
H2369       H  0.81480603  0.21882769  0.87894366     0.43700
H2370       H  0.92886316  0.26709123  0.94152355     0.43700
C2371       C  0.85615716  0.31008822  0.73294539    -0.05400
C2372       C  0.87259803  0.33747900  0.73993632    -0.32800
C2373       C  0.87351698  0.35826149  0.72323141     0.36400
C2374       C  0.85710846  0.35208484  0.69923093    -0.05800
C2375       C  0.84077493  0.32463866  0.69193499    -0.32700
C2376       C  0.84030199  0.30371639  0.70852830     0.36300
H2377       H  0.88548808  0.34296089  0.75820452     0.16700
O2378       O  0.89103385  0.38466746  0.73038233    -0.60200
H2379       H  0.82799080  0.31935729  0.67361973     0.16700
O2380       O  0.82402848  0.27721960  0.70090522    -0.60300
H2381       H  0.80622650  0.27131618  0.71013357     0.43700
H2382       H  0.90789554  0.39011512  0.71942988     0.43700
C2383       C  0.89287070  0.13853401  0.77722654    -0.05400
C2384       C  0.90752077  0.15700710  0.79835272    -0.32800
C2385       C  0.90968217  0.18265447  0.79892845     0.36400
C2386       C  0.89759664  0.19057908  0.77772601    -0.05800
C2387       C  0.88318065  0.17220295  0.75645802    -0.32700
C2388       C  0.88066065  0.14642125  0.75612310     0.36300
H2389       H  0.91706518  0.15144471  0.81478821     0.16700
O2390       O  0.92416553  0.19998254  0.82001821    -0.60200
H2391       H  0.87338714  0.17764019  0.74017960     0.16700
O2392       O  0.86622148  0.12917200  0.73496875    -0.60300
H2393       H  0.87984257  0.13270252  0.72008105     0.43700
H2394       H  0.91130709  0.19441968  0.83609175     0.43700
C2395       C  0.79032356  0.03152710  0.77403779    -0.05400
C2396       C  0.78473934  0.04482504  0.75219928    -0.32800
C2397       C  0.76032836  0.04542608  0.75166063     0.36400
C2398       C  0.74086723  0.03263929  0.77328497    -0.05800
C2399       C  0.74608119  0.01858015  0.79460707    -0.32700
C2400       C  0.77044511  0.01797222  0.79516487     0.36300
H2401       H  0.79968924  0.05551837  0.73580137     0.16700
O2402       O  0.75553882  0.55839054  0.72956060    -0.60200
H2403       H  0.73133206  0.00821671  0.81125827     0.16700
O2404       O  0.77437670  0.00373295  0.81631576    -0.60300
H2405       H  0.78023248  0.01593556  0.83262292     0.43700
H2406       H  0.74705649  0.54479997  0.71460858     0.43700
C2407       C  0.86614993  0.05307966  0.94051695    -0.05400
C2408       C  0.86004653  0.02919923  0.92661347    -0.32800
C2409       C  0.85973467  0.02827686  0.89752350     0.36400
C2410       C  0.86628421  0.05184873  0.88133419    -0.05800
C2411       C  0.87202504  0.07578385  0.89521934    -0.32700
C2412       C  0.87166239  0.07641441  0.92460386     0.36300
H2413       H  0.85594336  0.01109347  0.93841249     0.16700
O2414       O  0.85441863  0.00443616  0.88527606    -0.60200
H2415       H  0.87691154  0.09404977  0.88331291     0.16700
O2416       O  0.87659022  0.09983511  0.93750426    -0.60300
H2417       H  0.85841903  0.09803107  0.94024778     0.43700
H2418       H  0.83430510  0.99353972  0.88416867     0.43700
C2419       C  0.85723105  0.48337506  0.72404878    -0.05400
C2420       C  0.87976543  0.48819014  0.70750220    -0.32800
C2421       C  0.88012407  0.46701631  0.69324144     0.36400
C2422       C  0.85781199  0.44047616  0.69546795    -0.05800
C2423       C  0.83514645  0.43559302  0.71165873    -0.32700
C2424       C  0.83468405  0.45676133  0.72587215     0.36300
H2425       H  0.89753317  0.50830576  0.70618459     0.16700
O2426       O  0.90292285  0.47215604  0.67831209    -0.60200
H2427       H  0.81769823  0.41528244  0.71319625     0.16700
O2428       O  0.81187600  0.45128375  0.74098678    -0.60300
H2429       H  0.81356019  0.44348575  0.75906971     0.43700
H2430       H  0.90162626  0.48028066  0.66028557     0.43700
C2431       C  0.95285470  0.39664245  0.85154736    -0.05400
C2432       C  0.96722089  0.38794485  0.83457147    -0.32800
C2433       C  0.95495201  0.36140369  0.82498273     0.36400
C2434       C  0.92757730  0.34293183  0.83200778    -0.05800
C2435       C  0.91369587  0.35119967  0.85029432    -0.32700
C2436       C  0.92620756  0.37772187  0.86023356     0.36300
H2437       H  0.98773701  0.40209206  0.82749322     0.16700
O2438       O  0.96989376  0.35399977  0.80843233    -0.60200
H2439       H  0.89288664  0.33720957  0.85664154     0.16700
O2440       O  0.91200527  0.38506075  0.87792751    -0.60300
H2441       H  0.91836180  0.38393979  0.89696318     0.43700
H2442       H  0.96828453  0.35970748  0.78914840     0.43700
C2443       C  0.53638962  0.48294845  0.85073672    -0.05400
C2444       C  0.54490957  0.47060304  0.83102163    -0.32800
C2445       C  0.57172350  0.48315764  0.82167377     0.36400
C2446       C  0.59052207  0.00951294  0.83018160    -0.05800
C2447       C  0.58272515  0.02154825  0.85117397    -0.32700
C2448       C  0.55584758  0.00886746  0.86110479     0.36300
H2449       H  0.53044349  0.45130876  0.82206078     0.16700
O2450       O  0.57865373  0.47029123  0.80194271    -0.60200
H2451       H  0.59744101  0.04085219  0.85990136     0.16700
O2452       O  0.54877810  0.02105645  0.88145496    -0.60300
H2453       H  0.55003051  0.01269639  0.89933850     0.43700
H2454       H  0.58314468  0.45801661  0.81272553     0.43700
C2455       C  0.94882622  0.48162717  0.84031486    -0.05400
C2456       C  0.93264644  0.47301126  0.81625952    -0.32800
C2457       C  0.91807561  0.48565381  0.80752929     0.36400
C2458       C  0.91923790  0.00730947  0.82388579    -0.05800
C2459       C  0.93534638  0.01614931  0.84803593    -0.32700
C2460       C  0.95043396  0.50332571  0.85562757     0.36300
H2461       H  0.93159330  0.45662669  0.80397139     0.16700
O2462       O  0.90300938  0.47703000  0.78355079    -0.60200
H2463       H  0.93631412  0.03253599  0.86024279     0.16700
O2464       O  0.96590113  0.51207378  0.87932317    -0.60300
H2465       H  0.95301053  0.00067244  0.89619674     0.43700
H2466       H  0.91527825  0.48893567  0.76836584     0.43700
C2467       C  0.49611313  0.35240324  0.69573390    -0.05400
C2468       C  0.00217608  0.34107030  0.71917274    -0.32800
C2469       C  0.98141748  0.31944337  0.73457053     0.36400
C2470       C  0.95397969  0.30871784  0.72671036    -0.05800
C2471       C  0.94817946  0.31958073  0.70280072    -0.32700
C2472       C  0.96886371  0.34109881  0.68743567     0.36300
H2473       H  0.52302057  0.34927614  0.72569789     0.16700
O2474       O  0.98820140  0.30977001  0.75783426    -0.60200
H2475       H  0.92734320  0.31199446  0.69633294     0.16700
O2476       O  0.96192939  0.35232775  0.66558680    -0.60300
H2477       H  0.95607041  0.33888240  0.65038715     0.43700
H2478       H  0.99191180  0.29556629  0.75084527     0.43700
C2479       C  0.58036981  0.44416298  0.69765969    -0.05400
C2480       C  0.58735159  0.47121881  0.69205273    -0.32800
C2481       C  0.60878889  0.49267640  0.70616276     0.36400
C2482       C  0.62376826  0.48728088  0.72635922    -0.05800
C2483       C  0.61676909  0.46016892  0.73177621    -0.32700
C2484       C  0.59532264  0.43877362  0.71772895     0.36300
H2485       H  0.57596485  0.47573709  0.67681344     0.16700
O2486       O  0.61401197  0.01850313  0.70064329    -0.60200
H2487       H  0.62793433  0.45539108  0.74704437     0.16700
O2488       O  0.58995197  0.41271468  0.72282507    -0.60300
H2489       H  0.58087283  0.40757345  0.74144263     0.43700
H2490       H  0.62643521  0.02524476  0.68417941     0.43700
C2491       C  0.53925447  0.40182681  0.60571561    -0.05400
C2492       C  0.51453771  0.39012338  0.59097969    -0.32800
C2493       C  0.51418319  0.38847039  0.56174152     0.36400
C2494       C  0.53875205  0.39960727  0.54663802    -0.05800
C2495       C  0.56344599  0.41212767  0.56105983    -0.32700
C2496       C  0.56389728  0.41297843  0.59033602     0.36300
H2497       H  0.49534410  0.38176615  0.60218686     0.16700
O2498       O  0.98979332  0.37614015  0.54812503    -0.60200
H2499       H  0.58249169  0.41998195  0.54963288     0.16700
O2500       O  0.58835629  0.42264685  0.60368255    -0.60300
H2501       H  0.59837499  0.44251633  0.59988073     0.43700
H2502       H  0.98404162  0.35654113  0.54813828     0.43700
C2503       C  0.58566517  0.08363123  0.70469384    -0.05400
C2504       C  0.61306023  0.09965576  0.69630385    -0.32800
C2505       C  0.63403683  0.09999820  0.71229509     0.36400
C2506       C  0.62773392  0.08447987  0.73728522    -0.05800
C2507       C  0.60033477  0.06827944  0.74533285    -0.32700
C2508       C  0.57946710  0.06762515  0.72929757     0.36300
H2509       H  0.61821436  0.11212419  0.67745481     0.16700
O2510       O  0.66054818  0.11616480  0.70379592    -0.60200
H2511       H  0.59488106  0.05539022  0.76390858     0.16700
O2512       O  0.55294830  0.05011898  0.73703779    -0.60300
H2513       H  0.55012631  0.05726987  0.75478426     0.43700
H2514       H  0.66374107  0.10546766  0.68959416     0.43700
C2515       C  0.49770174  0.08326368  0.70235651    -0.05400
C2516       C  0.98659697  0.09966882  0.69446251    -0.32800
C2517       C  0.96535699  0.09923230  0.71018290     0.36400
C2518       C  0.95498206  0.08221113  0.73410463    -0.05800
C2519       C  0.96571433  0.06546022  0.74144297    -0.32700
C2520       C  0.98663803  0.06572972  0.72582141     0.36300
H2521       H  0.99473548  0.11317672  0.67641400     0.16700
O2522       O  0.95520907  0.11571005  0.70221407    -0.60200
H2523       H  0.95744201  0.05152696  0.75918833     0.16700
O2524       O  0.49531250  0.04778354  0.73286729    -0.60300
H2525       H  0.00425114  0.05373442  0.75128314     0.43700
H2526       H  0.96592869  0.13270032  0.71275285     0.43700
C2527       C  0.54010801  0.07551759  0.61225072    -0.05400
C2528       C  0.56476477  0.08931931  0.59711214    -0.32800
C2529       C  0.56531003  0.08851779  0.56791325     0.36400
C2530       C  0.54090553  0.07443252  0.55303007    -0.05800
C2531       C  0.51629059  0.05987571  0.56784470    -0.32700
C2532       C  0.51576111  0.05988781  0.59726193     0.36300
H2533       H  0.58374314  0.10179305  0.60782170     0.16700
O2534       O  0.58960022  0.10374706  0.55399306    -0.60200
H2535       H  0.49736172  0.04894813  0.55655358     0.16700
O2536       O  0.49152452  0.04408014  0.61110867    -0.60300
H2537       H  0.97993349  0.05204286  0.60634081     0.43700
H2538       H  0.59744017  0.09163716  0.55236380     0.43700
C2539       C  0.54205885  0.58082230  0.64361473     0.03200
C2540       C  0.52150460  0.58338161  0.65767529    -0.13000
C2541       C  0.52186510  0.58587329  0.68691844     0.00700
C2542       C  0.54402302  0.58788973  0.70189877    -0.11500
C2543       C  0.56469724  0.58550679  0.68852363     0.03200
C2544       C  0.56358027  0.58189739  0.65946616    -0.10900
H2545       H  0.50500102  0.58312393  0.64611838     0.08800
H2546       H  0.54491872  0.59082928  0.72431170     0.06300
H2547       H  0.57915496  0.57916808  0.64941039     0.06200
C2548       C  0.53876812  0.90088658  0.63612301     0.03200
C2549       C  0.51934505  0.87752014  0.65075175    -0.13000
C2550       C  0.51839595  0.87657654  0.68013233     0.00700
C2551       C  0.53837183  0.89866210  0.69499187    -0.11500
C2552       C  0.55850623  0.92180620  0.68077031     0.03200
C2553       C  0.55779482  0.92325291  0.65149033    -0.10900
H2554       H  0.50505788  0.85981025  0.63928471     0.08800
H2555       H  0.53801686  0.89806192  0.71766478     0.06300
H2556       H  0.57253477  0.94169541  0.64076160     0.06200
C2557       C  0.96401873  0.96859115  0.85083222     0.03200
C2558       C  0.99243704  0.98368959  0.85313919    -0.13000
C2559       C  0.50737473  0.97042437  0.85783702     0.00700
C2560       C  0.99355566  0.94226240  0.86231291    -0.11500
C2561       C  0.96553398  0.92682206  0.85794156     0.03200
C2562       C  0.95072030  0.94015331  0.85291473    -0.10900
H2563       H  0.50315515  0.50452489  0.84753159     0.08800
H2564       H  0.50523365  0.93207220  0.86554761     0.06300
H2565       H  0.92917127  0.92845556  0.84850050     0.06200
O2566       O  0.83275982  0.54101465  0.75370302    -0.85300
O2567       O  0.87245865  0.59305807  0.76418615    -0.82300
C2568       C  0.89106024  0.61192866  0.77794693     0.98200
O2569       O  0.90824168  0.60809909  0.79127394    -0.82400
O2570       O  0.88344348  0.57373351  0.83712976    -0.85000
C2571       C  0.86948519  0.55194332  0.85094750     1.02700
O2572       O  0.86029308  0.52941698  0.83890188    -0.77800
O2573       O  0.82526414  0.52811786  0.79793187    -0.78000
C2574       C  0.81748431  0.53374454  0.77533320     1.02600
O2575       O  0.87559365  0.53008131  0.73472510    -0.85300
O2576       O  0.91370838  0.58328165  0.74106580    -0.82400
C2577       C  0.93270947  0.58064266  0.75164845     0.98200
O2578       O  0.93201487  0.57467365  0.77718619    -0.82400
O2579       O  0.91093151  0.54412712  0.82392449    -0.85000
C2580       C  0.90367271  0.52058663  0.81496969     1.02700
O2581       O  0.88285038  0.50842353  0.79988799    -0.77800
O2582       O  0.84334643  0.00001297  0.76163921    -0.78000
C2583       C  0.85859641  0.50577126  0.74080935     1.02600
Cr2584     Cr  0.87384584  0.56108839  0.75096977     1.93700
Cr2585     Cr  0.90652403  0.57379203  0.80571225     1.93200
Cr2586     Cr  0.85459273  0.51910459  0.79868714     1.39100
O2587       O  0.87820486  0.55169353  0.78529318    -1.23000
O2588       O  0.89436076  0.72740549  0.75664095    -0.85300
O2589       O  0.84280214  0.71629809  0.76637899    -0.82300
C2590       C  0.82320646  0.71612518  0.77889803     0.98200
O2591       O  0.82611495  0.73763900  0.78975670    -0.82400
O2592       O  0.85676118  0.74390554  0.83714233    -0.85000
C2593       C  0.87726270  0.75017825  0.85219833     1.02700
O2594       O  0.90092676  0.76309999  0.84162603    -0.77800
O2595       O  0.90413610  0.73094746  0.80122964    -0.78000
C2596       C  0.89882370  0.71781402  0.77889926     1.02600
O2597       O  0.90719254  0.78138151  0.73697236    -0.85300
O2598       O  0.85405413  0.76774232  0.74179638    -0.82400
C2599       C  0.85719529  0.78974381  0.75152038     0.98200
O2600       O  0.86251872  0.79492912  0.77700420    -0.82400
O2601       O  0.88892476  0.80098049  0.82600071    -0.85000
C2602       C  0.91377003  0.81658511  0.81981410     1.02700
O2603       O  0.92624677  0.80842274  0.80445202    -0.77800
O2604       O  0.93544483  0.77845711  0.76576509    -0.78000
C2605       C  0.93121613  0.78860424  0.74390763     1.02600
Cr2606     Cr  0.87519503  0.74915124  0.75287462     1.93700
Cr2607     Cr  0.86006072  0.76872560  0.80590109     1.93200
Cr2608     Cr  0.91439827  0.76953836  0.80205736     1.39100
O2609       O  0.88308162  0.76233238  0.78703912    -1.23000
O2610       O  0.72099249  0.59437532  0.76712340    -0.85300
O2611       O  0.70737203  0.54263846  0.75403324    -0.82300
C2612       C  0.71590927  0.53520556  0.77507156     0.98200
O2613       O  0.70316391  0.52964238  0.79804040    -0.82400
O2614       O  0.67182530  0.53183222  0.84065434    -0.85000
C2615       C  0.68522956  0.55438512  0.85264480     1.02700
O2616       O  0.69284216  0.57628291  0.83909753    -0.77800
O2617       O  0.70092683  0.61063188  0.79347265    -0.78000
C2618       C  0.72196262  0.61355167  0.78090763     1.02600
O2619       O  0.67043862  0.58706852  0.74547685    -0.85300
O2620       O  0.65380646  0.53376541  0.73724186    -0.82400
C2621       C  0.64556993  0.50920768  0.74302098     0.98200
O2622       O  0.65574803  0.00274611  0.76283726    -0.82400
O2623       O  0.62688297  0.51150801  0.80420656    -0.85000
C2624       C  0.61908354  0.52332146  0.82084646     1.02700
O2625       O  0.63551672  0.54718836  0.82875822    -0.77800
O2626       O  0.64323779  0.57714045  0.78157130    -0.78000
C2627       C  0.64853091  0.58371687  0.75614230     1.02600
Cr2628     Cr  0.68724232  0.56372983  0.75341276     1.93700
Cr2629     Cr  0.66524114  0.52145239  0.80062836     1.93200
Cr2630     Cr  0.66878856  0.57645894  0.80899769     1.39100
O2631       O  0.67411085  0.55411630  0.78786239    -1.23000
C2632       C  0.85945627  0.89626564  0.63657644     0.03200
C2633       C  0.85841141  0.87450925  0.65216000    -0.13000
C2634       C  0.85718351  0.87426284  0.68166706     0.00700
C2635       C  0.85621382  0.89564104  0.69514695    -0.11500
C2636       C  0.85850322  0.91789854  0.67987619     0.03200
C2637       C  0.86050889  0.91826373  0.65071819    -0.10900
H2638       H  0.85824180  0.85777973  0.64137261     0.08800
H2639       H  0.85409317  0.89522953  0.71771403     0.06300
H2640       H  0.86187217  0.93532922  0.63889983     0.06200
C2641       C  0.70182750  0.91251222  0.30281060     0.03200
C2642       C  0.72543508  0.91589570  0.31598649    -0.13000
C2643       C  0.72848817  0.91932726  0.34498894     0.00700
C2644       C  0.70822182  0.92036696  0.36078853    -0.11500
C2645       C  0.68436670  0.91665923  0.34796109     0.03200
C2646       C  0.68124064  0.91256278  0.31907320    -0.10900
H2647       H  0.74141790  0.91565127  0.30377296     0.08800
H2648       H  0.71065716  0.92317955  0.38319421     0.06300
H2649       H  0.66233398  0.90855668  0.30945795     0.06200
C2650       C  0.01113671  0.72518515  0.30756910     0.03200
C2651       C  0.01226554  0.74756345  0.32113001    -0.13000
C2652       C  0.01141013  0.74840116  0.35048710     0.00700
C2653       C  0.01101539  0.72725350  0.36646184    -0.11500
C2654       C  0.01079792  0.70519043  0.35339066     0.03200
C2655       C  0.00980022  0.70384403  0.32406447    -0.10900
H2656       H  0.01415504  0.76462191  0.30894952     0.08800
H2657       H  0.01211809  0.72855928  0.38906658     0.06300
H2658       H  0.00825244  0.68612493  0.31411836     0.06200
C2659       C  0.62855505  0.80373025  0.51018299     0.03200
C2660       C  0.65692217  0.81792240  0.51147337    -0.13000
C2661       C  0.67111817  0.80437521  0.51824592     0.00700
C2662       C  0.65651746  0.77663693  0.52533194    -0.11500
C2663       C  0.62817046  0.76163448  0.52176683     0.03200
C2664       C  0.61437414  0.77555397  0.51441329    -0.10900
H2665       H  0.66798083  0.83920208  0.50533392     0.08800
H2666       H  0.66751777  0.76636225  0.53138467     0.06300
H2667       H  0.59274932  0.76452649  0.51055787     0.06200
O2668       O  0.99954783  0.88023654  0.42080370    -0.85300
O2669       O  0.54152922  0.93143045  0.42864512    -0.82300
C2670       C  0.56183981  0.95069192  0.44004866     0.98200
O2671       O  0.57948467  0.94664447  0.45205398    -0.82400
O2672       O  0.55520133  0.91624751  0.50003442    -0.85000
C2673       C  0.54041883  0.89604506  0.51556750     1.02700
O2674       O  0.52897715  0.87222711  0.50599594    -0.77800
O2675       O  0.99362657  0.87043266  0.46573696    -0.78000
C2676       C  0.98547103  0.87532298  0.44306867     1.02600
O2677       O  0.53903132  0.86542701  0.40136388    -0.85300
O2678       O  0.57973113  0.91783344  0.40471263    -0.82400
C2679       C  0.59821065  0.91397439  0.41468943     0.98200
O2680       O  0.59813086  0.90853792  0.44022339    -0.82400
O2681       O  0.57795111  0.88220508  0.48907294    -0.85000
C2682       C  0.56910259  0.85808965  0.48107145     1.02700
O2683       O  0.54721996  0.84597018  0.46771612    -0.77800
O2684       O  0.50748303  0.83826694  0.43075728    -0.78000
C2685       C  0.52142588  0.84176715  0.40880671     1.02600
Cr2686     Cr  0.54025384  0.89812490  0.41633913     1.93700
Cr2687     Cr  0.57549940  0.91202931  0.46889886     1.93200
Cr2688     Cr  0.52100356  0.85898436  0.46649271     1.39100
O2689       O  0.54549229  0.88999342  0.45072725    -1.23000
O2690       O  0.53934271  0.55193418  0.43389445    -0.85300
O2691       O  0.99867926  0.56382706  0.42757189    -0.82300
C2692       C  0.98440059  0.55323734  0.44946638     0.98200
O2693       O  0.99290084  0.56425713  0.47279526    -0.82400
O2694       O  0.52904259  0.59267644  0.51456559    -0.85000
C2695       C  0.54145442  0.58056888  0.52289913     1.02700
O2696       O  0.55618799  0.57624898  0.50631351    -0.77800
O2697       O  0.57826651  0.57243097  0.45575885    -0.78000
C2698       C  0.55946870  0.55143233  0.44433016     1.02600
O2699       O  0.57882699  0.60450237  0.41137303    -0.85300
O2700       O  0.53938831  0.61854220  0.41099425    -0.82400
C2701       C  0.52261557  0.62520980  0.41967272     0.98200
O2702       O  0.50935295  0.61463670  0.44213864    -0.82400
O2703       O  0.54849292  0.64116380  0.48190421    -0.85000
C2704       C  0.57050203  0.64883362  0.49471994     1.02700
O2705       O  0.58003303  0.63316035  0.49845243    -0.77800
O2706       O  0.59827151  0.63044481  0.44709161    -0.78000
C2707       C  0.59776274  0.62626786  0.42129749     1.02600
Cr2708     Cr  0.53947382  0.58551302  0.42363542     1.93700
Cr2709     Cr  0.52159022  0.60254671  0.47645978     1.93200
Cr2710     Cr  0.57586871  0.60242317  0.47539270     1.39100
O2711       O  0.54553987  0.59661219  0.45871763    -1.23000
O2712       O  0.87282753  0.93775953  0.42053922    -0.85300
O2713       O  0.88498111  0.89756760  0.42848165    -0.82300
C2714       C  0.88493745  0.87769550  0.44040871     0.98200
O2715       O  0.86363342  0.85912986  0.45223817    -0.82400
O2716       O  0.85594801  0.88116664  0.50042913    -0.85000
C2717       C  0.84907471  0.89464637  0.51584852     1.02700
O2718       O  0.83576220  0.90515619  0.50571894    -0.77800
O2719       O  0.86778872  0.94220251  0.46528327    -0.78000
C2720       C  0.88135990  0.95114419  0.44291464     1.02600
O2721       O  0.81947373  0.89678300  0.40093850    -0.85300
O2722       O  0.83395767  0.85786867  0.40448884    -0.82400
C2723       C  0.81201910  0.83847017  0.41435674     0.98200
O2724       O  0.80641366  0.83750762  0.43996469    -0.82400
O2725       O  0.79891337  0.85523986  0.48945049    -0.85000
C2726       C  0.78289095  0.86402434  0.48383243     1.02700
O2727       O  0.79061136  0.88550253  0.46949938    -0.77800
O2728       O  0.82079940  0.92632921  0.43055604    -0.78000
C2729       C  0.81202914  0.91328788  0.40810986     1.02600
Cr2730     Cr  0.85176952  0.89705402  0.41621066     1.93700
Cr2731     Cr  0.83189993  0.86050513  0.46896896     1.93200
Cr2732     Cr  0.82950614  0.91322729  0.46643527     1.39100
O2733       O  0.83789225  0.89029362  0.45063663    -1.23000
C2734       C  0.70533777  0.72910862  0.30713632     0.03200
C2735       C  0.68293945  0.71025816  0.32351682    -0.13000
C2736       C  0.68377459  0.71063238  0.35281669     0.00700
C2737       C  0.70686222  0.73117559  0.36595178    -0.11500
C2738       C  0.72907991  0.75081492  0.35017560     0.03200
C2739       C  0.72859528  0.74918422  0.32084891    -0.10900
H2740       H  0.66455179  0.69514169  0.31350839     0.08800
H2741       H  0.70772858  0.73189253  0.38859368     0.06300
H2742       H  0.74623239  0.76373201  0.30895130     0.06200
C2743       C  0.86431245  0.55282904  0.97219381     0.03200
C2744       C  0.84277793  0.53116694  0.98683732    -0.13000
C2745       C  0.84309746  0.52922570  0.01606351     0.00700
C2746       C  0.86508702  0.54921642  0.03088300    -0.11500
C2747       C  0.88689506  0.57101776  0.01676974     0.03200
C2748       C  0.88636155  0.57270321  0.98732824    -0.10900
H2749       H  0.82812120  0.01517273  0.97469546     0.08800
H2750       H  0.86471810  0.54817655  0.05354667     0.06300
H2751       H  0.90341357  0.58910928  0.97619118     0.06200
C2752       C  0.86862833  0.73952086  0.97298920     0.03200
C2753       C  0.88879420  0.73771418  0.98837264    -0.13000
C2754       C  0.88811780  0.73692151  0.01767916     0.00700
C2755       C  0.86629709  0.73698324  0.03161915    -0.11500
C2756       C  0.84544426  0.73800046  0.01663242     0.03200
C2757       C  0.84684370  0.73938709  0.98724378    -0.10900
H2758       H  0.90483686  0.73641954  0.97744352     0.08800
H2759       H  0.86557997  0.73636391  0.05429311     0.06300
H2760       H  0.83091453  0.74011579  0.97545128     0.06200
C2761       C  0.78870732  0.62445147  0.19403263     0.03200
C2762       C  0.81689361  0.63748886  0.19828352    -0.13000
C2763       C  0.83142232  0.62391983  0.19309424     0.00700
C2764       C  0.81685045  0.59615222  0.18708382    -0.11500
C2765       C  0.78833203  0.58172631  0.18716052     0.03200
C2766       C  0.77436703  0.59618882  0.19045867    -0.10900
H2767       H  0.82779139  0.65893492  0.20290933     0.08800
H2768       H  0.82767609  0.58609005  0.18019951     0.06300
H2769       H  0.75248928  0.58580420  0.18826543     0.06200
O2770       O  0.54423630  0.74607656  0.09993453    -0.85300
O2771       O  0.53148964  0.69359829  0.09208876    -0.82300
C2772       C  0.54107350  0.68901564  0.11411799     0.98200
O2773       O  0.52863596  0.68520432  0.13708533    -0.82400
O2774       O  0.49869148  0.69188931  0.17859451    -0.85000
C2775       C  0.51065879  0.71613168  0.18714501     1.02700
O2776       O  0.51620373  0.73573700  0.17062013    -0.77800
O2777       O  0.52271102  0.76389413  0.12102729    -0.78000
C2778       C  0.54439254  0.76627881  0.11058857     1.02600
O2779       O  0.49275887  0.73524615  0.07598251    -0.85300
O2780       O  0.47818958  0.68219749  0.07428347    -0.82400
C2781       C  0.96993961  0.65819377  0.08228021     0.98200
O2782       O  0.97903270  0.65360352  0.10477983    -0.82400
O2783       O  0.95144746  0.66483780  0.14487402    -0.85000
C2784       C  0.94360814  0.67878243  0.15809686     1.02700
O2785       O  0.95935032  0.70381036  0.16197296    -0.77800
O2786       O  0.96487406  0.72688215  0.11100468    -0.78000
C2787       C  0.97023668  0.73154944  0.08536232     1.02600
Cr2788     Cr  0.51077513  0.71378741  0.08818497     1.93700
Cr2789     Cr  0.99025420  0.67617551  0.13994632     1.93200
Cr2790     Cr  0.99143714  0.73097930  0.13966464     1.39100
O2791       O  0.49761334  0.70700487  0.12282965    -1.23000
O2792       O  0.71971412  0.88167874  0.08889764    -0.85300
O2793       O  0.66719040  0.86883974  0.09657477    -0.82300
C2794       C  0.64692331  0.86813360  0.10814751     0.98200
O2795       O  0.64911920  0.88929768  0.11928761    -0.82400
O2796       O  0.67828579  0.89739211  0.16789118    -0.85000
C2797       C  0.69837596  0.90377704  0.18352207     1.02700
O2798       O  0.72237131  0.91612827  0.17388505    -0.77800
O2799       O  0.72767617  0.88454698  0.13391663    -0.78000
C2800       C  0.72385117  0.87206855  0.11127920     1.02600
O2801       O  0.73167270  0.93514963  0.06943189    -0.85300
O2802       O  0.67811802  0.92001191  0.07154753    -0.82400
C2803       C  0.68102572  0.94198936  0.08093553     0.98200
O2804       O  0.68497736  0.94690639  0.10652021    -0.82400
O2805       O  0.70968451  0.95444401  0.15585536    -0.85000
C2806       C  0.73468164  0.97017096  0.15052740     1.02700
O2807       O  0.74856591  0.96194892  0.13759508    -0.77800
O2808       O  0.75926426  0.93247059  0.09941068    -0.78000
C2809       C  0.75548784  0.94261243  0.07730211     1.02600
Cr2810     Cr  0.69966664  0.90234879  0.08416154     1.93700
Cr2811     Cr  0.68206737  0.92130681  0.13591540     1.93200
Cr2812     Cr  0.73713965  0.92300183  0.13491328     1.39100
O2813       O  0.70613944  0.91536509  0.11853436    -1.23000
O2814       O  0.65853103  0.69551548  0.09166959    -0.85300
O2815       O  0.69906155  0.74806906  0.09891998    -0.82300
C2816       C  0.71924124  0.76788140  0.10990582     0.98200
O2817       O  0.73790886  0.76488623  0.12098365    -0.82400
O2818       O  0.71598575  0.73586118  0.17032995    -0.85000
C2819       C  0.70179163  0.71580753  0.18639066     1.02700
O2820       O  0.69046281  0.69195016  0.17695608    -0.77800
O2821       O  0.65360749  0.68620543  0.13656433    -0.78000
C2822       C  0.64455015  0.69020210  0.11403324     1.02600
O2823       O  0.69993801  0.68331869  0.07243197    -0.85300
O2824       O  0.73883342  0.73644618  0.07445630    -0.82400
C2825       C  0.75784550  0.73305246  0.08376782     0.98200
O2826       O  0.75869581  0.72829748  0.10940504    -0.82400
O2827       O  0.74116089  0.70400542  0.16015140    -0.85000
C2828       C  0.73169602  0.67895888  0.15604535     1.02700
O2829       O  0.71019786  0.66539490  0.14230981    -0.77800
O2830       O  0.67066065  0.65494509  0.10314570    -0.78000
C2831       C  0.68422804  0.65932777  0.08068474     1.02600
Cr2832     Cr  0.69947943  0.71525488  0.08700884     1.93700
Cr2833     Cr  0.73616224  0.73167935  0.13869753     1.93200
Cr2834     Cr  0.68281646  0.67700713  0.13832536     1.39100
O2835       O  0.70607200  0.70807630  0.12149929    -1.23000
C2836       C  0.68562486  0.55242324  0.97338048     0.03200
C2837       C  0.68439203  0.53042138  0.98836974    -0.13000
C2838       C  0.68211536  0.52904634  0.01755340     0.00700
C2839       C  0.68092894  0.54984330  0.03188057    -0.11500
C2840       C  0.68252322  0.57219282  0.01725679     0.03200
C2841       C  0.68483951  0.57332986  0.98791773    -0.10900
H2842       H  0.68614410  0.01530469  0.97622419     0.08800
H2843       H  0.67927781  0.54886163  0.05451478     0.06300
H2844       H  0.68538974  0.59014368  0.97634910     0.06200
C2845       C  0.68236707  0.63662371  0.06391864    -0.05400
C2846       C  0.70208536  0.64245203  0.04295712    -0.32800
C2847       C  0.70227327  0.62174589  0.02769905     0.36400
C2848       C  0.68225140  0.59449487  0.03279482    -0.05800
C2849       C  0.66242676  0.58852914  0.05360006    -0.32700
C2850       C  0.66233585  0.60928300  0.06908230     0.36300
H2851       H  0.71801614  0.66317843  0.03879265     0.16700
O2852       O  0.72268277  0.62835834  0.00844211    -0.60200
H2853       H  0.64689175  0.56765774  0.05784056     0.16700
O2854       O  0.64278184  0.60250286  0.08937560    -0.60300
H2855       H  0.62712025  0.60195651  0.07955872     0.43700
H2856       H  0.73683655  0.62636352  0.01862681     0.43700
C2857       C  0.72398187  0.84602403  0.11067853    -0.05400
C2858       C  0.71078469  0.82795177  0.08877506    -0.32800
C2859       C  0.70923363  0.80260262  0.08817553     0.36400
C2860       C  0.72125708  0.79489850  0.10958073    -0.05800
C2861       C  0.73487284  0.81310422  0.13123959    -0.32700
C2862       C  0.73613529  0.83836047  0.13203961     0.36300
H2863       H  0.70110517  0.83323358  0.07223899     0.16700
O2864       O  0.69584613  0.78552502  0.06653578    -0.64400
H2865       H  0.74409519  0.80750705  0.14798322     0.16700
O2866       O  0.74907037  0.85520470  0.15396823    -0.60300
H2867       H  0.76826590  0.86658968  0.14774967     0.43700
H2868       H  0.71010998  0.78942664  0.05228052     0.43700
C2869       C  0.68234304  0.00655351  0.03203579    -0.05400
C2870       C  0.66456354  0.97943510  0.02447586    -0.32800
C2871       C  0.66404579  0.95778365  0.03963935     0.36400
C2872       C  0.68156473  0.96327970  0.06248155    -0.05800
C2873       C  0.70023128  0.99035277  0.06883780    -0.32700
C2874       C  0.70126395  0.51206017  0.05451793     0.36300
H2875       H  0.65065922  0.97506285  0.00723523     0.16700
O2876       O  0.64610390  0.93154931  0.03235684    -0.60200
H2877       H  0.71578790  0.49551641  0.08593721     0.16700
O2878       O  0.72065829  0.53825833  0.06039062    -0.60300
H2879       H  0.73603518  0.54257560  0.04746684     0.43700
H2880       H  0.62928527  0.92643702  0.04324510     0.43700
C2881       C  0.56691192  0.68805544  0.11322458    -0.05400
C2882       C  0.57665078  0.68235875  0.13797154    -0.32800
C2883       C  0.60142621  0.68252035  0.13845819     0.36400
C2884       C  0.61741395  0.68856313  0.11382700    -0.05800
C2885       C  0.60753134  0.69391566  0.08895965    -0.32700
C2886       C  0.58271736  0.69383645  0.08851894     0.36300
H2887       H  0.56516177  0.67800885  0.15733524     0.16700
O2888       O  0.61002421  0.67739842  0.16345122    -0.60200
H2889       H  0.61927763  0.69864136  0.06973716     0.16700
O2890       O  0.57431509  0.69963437  0.06377504    -0.60300
H2891       H  0.58272431  0.71969660  0.06315522     0.43700
H2892       H  0.60165908  0.65735910  0.16465186     0.43700
C2893       C  0.57010644  0.79280353  0.10996421    -0.05400
C2894       C  0.59184585  0.79566868  0.09332620    -0.32800
C2895       C  0.61664571  0.81995884  0.09233006     0.36400
C2896       C  0.62040949  0.84232614  0.10829730    -0.05800
C2897       C  0.59868002  0.83952435  0.12498596    -0.32700
C2898       C  0.57379867  0.81501838  0.12606381     0.36300
H2899       H  0.58971722  0.77894974  0.08083558     0.16700
O2900       O  0.63710738  0.82135147  0.07578390    -0.60200
H2901       H  0.60107907  0.85623115  0.13766163     0.16700
O2902       O  0.55345299  0.81298756  0.14322894    -0.60300
H2903       H  0.55632190  0.80630354  0.16147936     0.43700
H2904       H  0.63414266  0.82697259  0.05697853     0.43700
C2905       C  0.74627312  0.66583286  0.16759506    -0.05400
C2906       C  0.77343108  0.67605973  0.15985794    -0.32800
C2907       C  0.78780932  0.66351104  0.16926412     0.36400
C2908       C  0.77520820  0.64063363  0.18759467    -0.05800
C2909       C  0.74826001  0.63133564  0.19649144    -0.32700
C2910       C  0.73370459  0.64360114  0.18634386     0.36300
H2911       H  0.78326876  0.69327051  0.14549786     0.16700
O2912       O  0.81332288  0.67238824  0.15838914    -0.60200
H2913       H  0.73822884  0.61408811  0.21076028     0.16700
O2914       O  0.70747756  0.63416211  0.19532800    -0.60300
H2915       H  0.69596898  0.61955836  0.18219309     0.43700
H2916       H  0.82521266  0.69008900  0.16732855     0.43700
C2917       C  0.74747707  0.49803058  0.16231775    -0.05400
C2918       C  0.76983296  0.50771496  0.18015441    -0.32800
C2919       C  0.78259343  0.53454075  0.18945224     0.36400
C2920       C  0.77361867  0.55242787  0.17988214    -0.05800
C2921       C  0.75099515  0.54235323  0.16209333    -0.32700
C2922       C  0.73753326  0.51524073  0.15401393     0.36300
H2923       H  0.77705349  0.49426918  0.18737187     0.16700
O2924       O  0.80300202  0.54274123  0.20878327    -0.60200
H2925       H  0.74387023  0.55553722  0.15389373     0.16700
O2926       O  0.71528321  0.50602932  0.13705530    -0.60300
H2927       H  0.69965710  0.50090673  0.14989469     0.43700
H2928       H  0.81824734  0.54232189  0.19905138     0.43700
C2929       C  0.91585842  0.66595181  0.16946594    -0.05400
C2930       C  0.90510187  0.64132542  0.18442926    -0.32800
C2931       C  0.87819135  0.62833097  0.19437539     0.36400
C2932       C  0.86137272  0.63952405  0.18826066    -0.05800
C2933       C  0.87284805  0.66485268  0.17424187    -0.32700
C2934       C  0.89995688  0.67830986  0.16552933     0.36300
H2935       H  0.91765043  0.63225196  0.18858051     0.16700
O2936       O  0.86870913  0.60516571  0.21060034    -0.60200
H2937       H  0.86061743  0.67393459  0.16881633     0.16700
O2938       O  0.91019984  0.70275723  0.15154767    -0.60300
H2939       H  0.91631207  0.71657649  0.16638089     0.43700
H2940       H  0.86951770  0.59150506  0.19853473     0.43700
C2941       C  0.82177157  0.73631034  0.03202362    -0.05400
C2942       C  0.80885878  0.71607994  0.05277822    -0.32800
C2943       C  0.78764054  0.71459392  0.06897344     0.36400
C2944       C  0.77892633  0.73369801  0.06492149    -0.05800
C2945       C  0.79092308  0.75329589  0.04339268    -0.32700
C2946       C  0.81228564  0.75474271  0.02699733     0.36300
H2947       H  0.81532779  0.70129960  0.05652778     0.16700
O2948       O  0.77548446  0.69424679  0.08880007    -0.60200
H2949       H  0.78438747  0.76805251  0.03991167     0.16700
O2950       O  0.82485775  0.77523753  0.00739827    -0.60300
H2951       H  0.81204127  0.76986505  0.99151705     0.43700
H2952       H  0.75897971  0.67975909  0.07972192     0.43700
C2953       C  0.90967436  0.73516276  0.03382207    -0.05400
C2954       C  0.90208009  0.71619894  0.05592386    -0.32800
C2955       C  0.92168123  0.71451478  0.07215122     0.36400
C2956       C  0.94965282  0.73218384  0.06675848    -0.05800
C2957       C  0.95739970  0.75045833  0.04398490    -0.32700
C2958       C  0.93767805  0.75221785  0.02771511     0.36300
H2959       H  0.88075875  0.70243640  0.06057130     0.16700
O2960       O  0.91319273  0.69529237  0.09321160    -0.60200
H2961       H  0.97876245  0.76402111  0.03937249     0.16700
O2962       O  0.94605551  0.77121887  0.00644890    -0.60300
H2963       H  0.94684459  0.78744551  0.01488642     0.43700
H2964       H  0.91292315  0.67930536  0.08479463     0.43700
C2965       C  0.77871724  0.96359893  0.06071050    -0.05400
C2966       C  0.77361544  0.97799834  0.03966746    -0.32800
C2967       C  0.79334914  0.50007667  0.02685689     0.36400
C2968       C  0.82035789  0.50636902  0.03129483    -0.05800
C2969       C  0.82722008  0.99196776  0.05128125    -0.32700
C2970       C  0.80588260  0.97075980  0.06641987     0.36300
H2971       H  0.75300919  0.97332531  0.03519167     0.16700
O2972       O  0.78754614  0.51549329  0.00883322    -0.60200
H2973       H  0.84796788  0.99715133  0.05580580     0.16700
O2974       O  0.81187260  0.95711566  0.08651993    -0.60300
H2975       H  0.81614866  0.96830008  0.10352536     0.43700
H2976       H  0.77890157  0.50385500  0.99242877     0.43700
C2977       C  0.94957240  0.63571516  0.06489452    -0.05400
C2978       C  0.94111353  0.60851881  0.07190709    -0.32800
C2979       C  0.92131278  0.58721477  0.05607451     0.36400
C2980       C  0.90931064  0.59286836  0.03293398    -0.05800
C2981       C  0.91797368  0.61996430  0.02578650    -0.32700
C2982       C  0.93770601  0.64120760  0.04141967     0.36300
H2983       H  0.94983108  0.60369409  0.08971884     0.16700
O2984       O  0.91393677  0.56098218  0.06340111    -0.60200
H2985       H  0.90883214  0.62479614  0.00835291     0.16700
O2986       O  0.94506698  0.66730461  0.03345456    -0.60300
H2987       H  0.93056676  0.67042955  0.04096731     0.43700
H2988       H  0.92522808  0.55632460  0.05136762     0.43700
C2989       C  0.70420975  0.72668963  0.27594634    -0.05400
C2990       C  0.69073889  0.70063491  0.26438509    -0.32800
C2991       C  0.68832144  0.69695664  0.23554175     0.36400
C2992       C  0.70054747  0.71958938  0.21700122    -0.05800
C2993       C  0.71393726  0.74575733  0.22835496    -0.32700
C2994       C  0.71571309  0.74946245  0.25748217     0.36300
H2995       H  0.68220455  0.68267692  0.27776589     0.16700
O2996       O  0.67473178  0.67088392  0.22587554    -0.60200
H2997       H  0.72337446  0.76349776  0.21465317     0.16700
O2998       O  0.72783146  0.77538554  0.26753035    -0.60300
H2999       H  0.74747776  0.78350184  0.26302982     0.43700
H3000       H  0.65551240  0.66641404  0.22415370     0.43700
C3001       C  0.79184082  0.81727258  0.39601765    -0.05400
C3002       C  0.79897805  0.80236041  0.37811387    -0.32800
C3003       C  0.77891918  0.78087372  0.36244563     0.36400
C3004       C  0.75145774  0.77422829  0.36467978    -0.05800
C3005       C  0.74474039  0.78996336  0.38167565    -0.32700
C3006       C  0.76459554  0.81126934  0.39724937     0.36300
H3007       H  0.81989150  0.80682104  0.37693973     0.16700
O3008       O  0.78606898  0.76562087  0.34627752    -0.60200
H3009       H  0.72385450  0.78561374  0.38297570     0.16700
O3010       O  0.75750858  0.82699498  0.41280282    -0.60300
H3011       H  0.74322189  0.81435832  0.42610655     0.43700
H3012       H  0.79365628  0.77638650  0.32875047     0.43700
C3013       C  0.90724510  0.97751524  0.44323932    -0.05400
C3014       C  0.91283059  0.99470929  0.46616839    -0.32800
C3015       C  0.93804641  0.51961484  0.46934535     0.36400
C3016       C  0.95759351  0.52788733  0.44762387    -0.05800
C3017       C  0.95202563  0.00954104  0.42402315    -0.32700
C3018       C  0.92715159  0.98523503  0.42197806     0.36300
H3019       H  0.89789622  0.98936680  0.48276297     0.16700
O3020       O  0.94255761  0.53544390  0.49236070    -0.60200
H3021       H  0.96717254  0.01477640  0.40767946     0.16700
O3022       O  0.92315408  0.96859914  0.39981358    -0.60300
H3023       H  0.91653671  0.97566293  0.38444900     0.43700
H3024       H  0.94926567  0.52770390  0.50696884     0.43700
C3025       C  0.66076871  0.68911454  0.36961151    -0.05400
C3026       C  0.64976608  0.66162282  0.36261340    -0.32800
C3027       C  0.62894665  0.64087779  0.37887146     0.36400
C3028       C  0.61915091  0.64739043  0.40292673    -0.05800
C3029       C  0.62971092  0.67487385  0.40953193    -0.32700
C3030       C  0.64998844  0.69559778  0.39294021     0.36300
H3031       H  0.65773724  0.65614856  0.34478421     0.16700
O3032       O  0.61932297  0.61431164  0.37186090    -0.60200
H3033       H  0.62186246  0.68036600  0.42745359     0.16700
O3034       O  0.65888800  0.72212996  0.39958432    -0.60300
H3035       H  0.64846692  0.72785119  0.38734785     0.43700
H3036       H  0.60520614  0.61037358  0.35757627     0.43700
C3037       C  0.95917742  0.87494323  0.44233911    -0.05400
C3038       C  0.95251442  0.88519093  0.41856088    -0.32800
C3039       C  0.92825927  0.88589872  0.41753332     0.36400
C3040       C  0.91002354  0.87606740  0.44042849    -0.05800
C3041       C  0.91630083  0.86534506  0.46396852    -0.32700
C3042       C  0.94076749  0.86503764  0.46525141     0.36300
H3043       H  0.96628500  0.89301811  0.40075194     0.16700
O3044       O  0.92255121  0.89616453  0.39398274    -0.60200
H3045       H  0.90251868  0.85784216  0.48179836     0.16700
O3046       O  0.94625769  0.85476457  0.48893222    -0.60300
H3047       H  0.95411319  0.87002030  0.50222751     0.43700
H3048       H  0.91133346  0.88016742  0.38223956     0.43700
C3049       C  0.56462771  0.97806010  0.43925810    -0.05400
C3050       C  0.58112412  0.99776660  0.45870264    -0.32800
C3051       C  0.58229847  0.52328375  0.45386811     0.36400
C3052       C  0.56066050  0.52593620  0.44272054    -0.05800
C3053       C  0.53893404  0.50328627  0.43022600    -0.32700
C3054       C  0.54950149  0.98423177  0.42006000     0.36300
H3055       H  0.59303886  0.99355656  0.47353975     0.16700
O3056       O  0.60398217  0.54477157  0.46631165    -0.60200
H3057       H  0.52202418  0.50459280  0.42138870     0.16700
O3058       O  0.53447449  0.96644396  0.39948812    -0.60300
H3059       H  0.51539754  0.95719985  0.40643996     0.43700
H3060       H  0.61523901  0.05142200  0.47202096     0.43700
C3061       C  0.61401980  0.73153610  0.52003003    -0.05400
C3062       C  0.62761103  0.71951009  0.50705163    -0.32800
C3063       C  0.61383131  0.69215742  0.50023364     0.36400
C3064       C  0.58572054  0.67649642  0.50522918    -0.05800
C3065       C  0.57222195  0.68772222  0.51953574    -0.32700
C3066       C  0.58628235  0.71497834  0.52748464     0.36300
H3067       H  0.64869849  0.73152831  0.50061096     0.16700
O3068       O  0.62759797  0.68151238  0.48656608    -0.60200
H3069       H  0.55072777  0.67537394  0.52442952     0.16700
O3070       O  0.57298101  0.72512157  0.54288751    -0.60300
H3071       H  0.55775490  0.72321941  0.53108271     0.43700
H3072       H  0.63585810  0.67582976  0.50158316     0.43700
C3073       C  0.70079533  0.81834529  0.51306503    -0.05400
C3074       C  0.71722981  0.84540625  0.52137897    -0.32800
C3075       C  0.74413976  0.86071244  0.51187653     0.36400
C3076       C  0.75502924  0.84870668  0.49451962    -0.05800
C3077       C  0.73934840  0.82131183  0.48773632    -0.32700
C3078       C  0.71223873  0.80622039  0.49634220     0.36300
H3079       H  0.70888530  0.85494670  0.53447916     0.16700
O3080       O  0.75984460  0.88708136  0.52019233    -0.60200
H3081       H  0.74789172  0.81183704  0.47483458     0.16700
O3082       O  0.69656098  0.78050016  0.48623638    -0.60300
H3083       H  0.70223545  0.76902364  0.49680473     0.43700
H3084       H  0.75502935  0.89792388  0.50743096     0.43700
C3085       C  0.61386878  0.81806134  0.50224275    -0.05400
C3086       C  0.59455054  0.80785273  0.48083003    -0.32800
C3087       C  0.57987809  0.82070531  0.47353523     0.36400
C3088       C  0.58430116  0.84405811  0.48797069    -0.05800
C3089       C  0.60401340  0.85449271  0.50901046    -0.32700
C3090       C  0.61879443  0.84173259  0.51613756     0.36300
H3091       H  0.59096981  0.78995517  0.46956037     0.16700
O3092       O  0.56137995  0.81027179  0.45226273    -0.60200
H3093       H  0.60777351  0.87242069  0.52032931     0.16700
O3094       O  0.63703489  0.85173923  0.53766729    -0.60300
H3095       H  0.65302519  0.86832682  0.52993673     0.43700
H3096       H  0.57168301  0.81981412  0.43503301     0.43700
C3097       C  0.01329682  0.68435681  0.37022402    -0.05400
C3098       C  0.99657717  0.67208666  0.39383362    -0.32800
C3099       C  0.99917018  0.65277661  0.41019517     0.36400
C3100       C  0.51864185  0.64529241  0.40299038    -0.05800
C3101       C  0.53548840  0.65791271  0.37948831    -0.32700
C3102       C  0.53294697  0.67717960  0.36326832     0.36300
H3103       H  0.98137061  0.67743366  0.39956587     0.16700
O3104       O  0.98233226  0.64123900  0.43296870    -0.60200
H3105       H  0.55109959  0.65315064  0.37369787     0.16700
O3106       O  0.55089110  0.69003950  0.34152022    -0.60300
H3107       H  0.54525778  0.67635518  0.32658431     0.43700
H3108       H  0.99163719  0.65381334  0.44856552     0.43700
C3109       C  0.01261505  0.77219548  0.36445213    -0.05400
C3110       C  0.53170316  0.79853312  0.35537761    -0.32800
C3111       C  0.53430198  0.82133729  0.36899197     0.36400
C3112       C  0.51746484  0.81812372  0.39226245    -0.05800
C3113       C  0.99779125  0.79171951  0.40079484    -0.32700
C3114       C  0.99515519  0.76893787  0.38703013     0.36300
H3115       H  0.54534062  0.80153241  0.33808277     0.16700
O3116       O  0.55362855  0.84661997  0.35944784    -0.60200
H3117       H  0.98449046  0.78860153  0.41844810     0.16700
O3118       O  0.97542532  0.74356605  0.39586712    -0.60300
H3119       H  0.95945573  0.73911115  0.38397629     0.43700
H3120       H  0.57068478  0.85039743  0.36895255     0.43700
C3121       C  0.51393110  0.72098379  0.21740027    -0.05400
C3122       C  0.00049682  0.73323615  0.22987462    -0.32800
C3123       C  0.99896153  0.73435114  0.25898787     0.36400
C3124       C  0.01229762  0.72432810  0.27634041    -0.05800
C3125       C  0.52647462  0.71277349  0.26353565    -0.32700
C3126       C  0.52684515  0.71054699  0.23438243     0.36300
H3127       H  0.98966405  0.74052888  0.21698760     0.16700
O3128       O  0.98321570  0.74406134  0.27008318    -0.60200
H3129       H  0.53721898  0.70519782  0.27610670     0.16700
O3130       O  0.53951729  0.69779821  0.22272833    -0.60300
H3131       H  0.55835799  0.71248842  0.21855708     0.43700
H3132       H  0.96515672  0.72777687  0.27362587     0.43700
C3133       C  0.75151311  0.91916493  0.35921436    -0.05400
C3134       C  0.76923537  0.94103313  0.37585505    -0.32800
C3135       C  0.78970961  0.93993872  0.39130561     0.36400
C3136       C  0.79245019  0.91659847  0.39036392    -0.05800
C3137       C  0.77512294  0.89513575  0.37298856    -0.32700
C3138       C  0.75485292  0.89630593  0.35751138     0.36300
H3139       H  0.76701958  0.95887057  0.37703507     0.16700
O3140       O  0.80723317  0.96194815  0.40672239    -0.60200
H3141       H  0.77663815  0.87687974  0.37207987     0.16700
O3142       O  0.73721060  0.87423074  0.34221729    -0.60300
H3143       H  0.74696312  0.87586311  0.32442306     0.43700
H3144       H  0.79723538  0.96043556  0.42430506     0.43700
C3145       C  0.61988029  0.91494698  0.39680305    -0.05400
C3146       C  0.63096191  0.89849970  0.40437244    -0.32800
C3147       C  0.65180549  0.89879254  0.38857847     0.36400
C3148       C  0.66210650  0.91587615  0.36479954    -0.05800
C3149       C  0.65061479  0.93185895  0.35673624    -0.32700
C3150       C  0.62960160  0.93146854  0.37255235     0.36300
H3151       H  0.62315599  0.88498104  0.42247254     0.16700
O3152       O  0.66100650  0.88128087  0.39566632    -0.60200
H3153       H  0.65821013  0.94493001  0.33831195     0.16700
O3154       O  0.61903570  0.94752371  0.36433306    -0.60300
H3155       H  0.62947464  0.96462157  0.37478022     0.43700
H3156       H  0.67170020  0.88863513  0.41296910     0.43700
C3157       C  0.69472183  0.90147593  0.21387354    -0.05400
C3158       C  0.68604732  0.91792302  0.22663069    -0.32800
C3159       C  0.68811578  0.92163377  0.25554082     0.36400
C3160       C  0.69836966  0.90812975  0.27223291    -0.05800
C3161       C  0.70613264  0.89084879  0.25937387    -0.32700
C3162       C  0.70491655  0.88796999  0.23030891     0.36300
H3163       H  0.67938194  0.92943295  0.21390551     0.16700
O3164       O  0.68239943  0.94032030  0.26689658    -0.60200
H3165       H  0.71374712  0.88001794  0.27181365     0.16700
O3166       O  0.71393611  0.87215558  0.21809894    -0.60300
H3167       H  0.73376243  0.88433911  0.21516051     0.43700
H3168       H  0.66238112  0.93219445  0.26557021     0.43700
C3169       C  0.85729804  0.89555911  0.60560527    -0.05400
C3170       C  0.87547893  0.89183276  0.58873268    -0.32800
C3171       C  0.87360254  0.89190994  0.55934254     0.36400
C3172       C  0.85342161  0.89590134  0.54654119    -0.05800
C3173       C  0.83534137  0.89953840  0.56362063    -0.32700
C3174       C  0.83708141  0.89932058  0.59271144     0.36300
H3175       H  0.89130945  0.88917519  0.59834309     0.16700
O3176       O  0.89203233  0.88891666  0.54340940    -0.60200
H3177       H  0.81914922  0.90189219  0.55444680     0.16700
O3178       O  0.81801110  0.90146686  0.60849437    -0.60300
H3179       H  0.82262651  0.92071146  0.60652552     0.43700
H3180       H  0.88457068  0.86902615  0.54225635     0.43700
C3181       C  0.68798399  0.55406839  0.88339442    -0.05400
C3182       C  0.66863825  0.53088122  0.89832529    -0.32800
C3183       C  0.66772485  0.53030483  0.92742779     0.36400
C3184       C  0.68676074  0.55292990  0.94245275    -0.05800
C3185       C  0.70656478  0.57601527  0.92774169    -0.32700
C3186       C  0.70730647  0.57667934  0.89835653     0.36300
H3187       H  0.65320221  0.51336429  0.88741983     0.16700
O3188       O  0.64717128  0.00892812  0.94068246    -0.60200
H3189       H  0.72146435  0.59351911  0.93907767     0.16700
O3190       O  0.72677022  0.59949773  0.88458188    -0.60300
H3191       H  0.74192184  0.59593681  0.88092849     0.43700
H3192       H  0.63260700  0.01344535  0.94389733     0.43700
C3193       C  0.74784657  0.63978293  0.78154481    -0.05400
C3194       C  0.74814027  0.66364547  0.78965472    -0.32800
C3195       C  0.77242587  0.68875658  0.78921709     0.36400
C3196       C  0.79691652  0.69028492  0.78040488    -0.05800
C3197       C  0.79654584  0.66629562  0.77283406    -0.32700
C3198       C  0.77254434  0.64135192  0.77349165     0.36300
H3199       H  0.72943928  0.66295487  0.79592431     0.16700
O3200       O  0.77173737  0.71166392  0.79653982    -0.60200
H3201       H  0.81508063  0.66669336  0.76642295     0.16700
O3202       O  0.77360747  0.61864789  0.76604703    -0.60300
H3203       H  0.77706177  0.61152538  0.78370387     0.43700
H3204       H  0.77380558  0.71264100  0.81716554     0.43700
C3205       C  0.87451121  0.74559520  0.88291105    -0.05400
C3206       C  0.89706463  0.76211814  0.89958689    -0.32800
C3207       C  0.89526943  0.76042592  0.92873504     0.36400
C3208       C  0.87063242  0.74170718  0.94199636    -0.05800
C3209       C  0.84799631  0.72505952  0.92545493    -0.32700
C3210       C  0.84973656  0.72701726  0.89611841     0.36300
H3211       H  0.91613312  0.77718698  0.89006040     0.16700
O3212       O  0.91725378  0.77832632  0.94410547    -0.60200
H3213       H  0.82893605  0.71040604  0.93530594     0.16700
O3214       O  0.82731025  0.71035469  0.88064454    -0.60300
H3215       H  0.81638494  0.71958473  0.87980040     0.43700
H3216       H  0.93100979  0.77253969  0.94190607     0.43700
C3217       C  0.85615814  0.81046526  0.73313259    -0.05400
C3218       C  0.87307871  0.83792524  0.73956471    -0.32800
C3219       C  0.87406284  0.85856921  0.72256906     0.36400
C3220       C  0.85729432  0.85218274  0.69883209    -0.05800
C3221       C  0.84039071  0.82466046  0.69216414    -0.32700
C3222       C  0.83979434  0.80386741  0.70908039     0.36300
H3223       H  0.88628782  0.84353882  0.75758802     0.16700
O3224       O  0.89195727  0.88503970  0.72918228    -0.60200
H3225       H  0.82726829  0.81924865  0.67410699     0.16700
O3226       O  0.82288091  0.77727948  0.70215525    -0.60300
H3227       H  0.80582280  0.77155815  0.71285179     0.43700
H3228       H  0.90849934  0.89017657  0.71778400     0.43700
C3229       C  0.89313097  0.63902905  0.77802455    -0.05400
C3230       C  0.90561379  0.65652346  0.80049035    -0.32800
C3231       C  0.90758735  0.68211350  0.80118099     0.36400
C3232       C  0.89764055  0.69105766  0.77871193    -0.05800
C3233       C  0.88525209  0.67353768  0.75621423    -0.32700
C3234       C  0.88284391  0.64779074  0.75578555     0.36300
H3235       H  0.91351688  0.65018274  0.81787649     0.16700
O3236       O  0.91968101  0.69830850  0.82376992    -0.60200
H3237       H  0.87705717  0.67965187  0.73891338     0.16700
O3238       O  0.87052759  0.63146712  0.73333955    -0.60300
H3239       H  0.88553679  0.63536188  0.72005720     0.43700
H3240       H  0.90505599  0.69228153  0.83811234     0.43700
C3241       C  0.79037711  0.53184902  0.77402629    -0.05400
C3242       C  0.78440183  0.54442198  0.75174074    -0.32800
C3243       C  0.75988666  0.54486204  0.75111701     0.36400
C3244       C  0.74077192  0.53273581  0.77315125    -0.05800
C3245       C  0.74626489  0.51914777  0.79476486    -0.32700
C3246       C  0.77066855  0.51862941  0.79536850     0.36300
H3247       H  0.79912000  0.55467774  0.73504388     0.16700
O3248       O  0.75642691  0.05978113  0.73064373    -0.60200
H3249       H  0.73173354  0.50914647  0.81167486     0.16700
O3250       O  0.77482518  0.50484726  0.81683496    -0.60300
H3251       H  0.78098380  0.51745616  0.83280931     0.43700
H3252       H  0.74842111  0.04684860  0.71506158     0.43700
C3253       C  0.86442968  0.55315733  0.94106647    -0.05400
C3254       C  0.85784375  0.52910799  0.92719712    -0.32800
C3255       C  0.85825037  0.52828217  0.89807900     0.36400
C3256       C  0.86594938  0.55207349  0.88179963    -0.05800
C3257       C  0.87209332  0.57616334  0.89562705    -0.32700
C3258       C  0.87107048  0.57674224  0.92500538     0.36300
H3259       H  0.85291394  0.51079381  0.93904975     0.16700
O3260       O  0.85247812  0.50426354  0.88593748    -0.60200
H3261       H  0.87783580  0.59461807  0.88367797     0.16700
O3262       O  0.87651956  0.60039756  0.93774071    -0.60300
H3263       H  0.85853326  0.59903482  0.94042852     0.43700
H3264       H  0.83239449  0.49398301  0.88413915     0.43700
C3265       C  0.85727139  0.98303737  0.72354179    -0.05400
C3266       C  0.87926464  0.98833455  0.70584671    -0.32800
C3267       C  0.87975806  0.96735892  0.69130680     0.36400
C3268       C  0.85812365  0.94052340  0.69440627    -0.05800
C3269       C  0.83595422  0.93518362  0.71168314    -0.32700
C3270       C  0.83536615  0.95613055  0.72618947     0.36300
H3271       H  0.89655690  0.00869790  0.70382778     0.16700
O3272       O  0.90214239  0.97301242  0.67533083    -0.60200
H3273       H  0.81900420  0.91464383  0.71392837     0.16700
O3274       O  0.81308107  0.95009110  0.74251768    -0.60300
H3275       H  0.81595075  0.94276745  0.76035279     0.43700
H3276       H  0.90011662  0.98126072  0.65772491     0.43700
C3277       C  0.95335538  0.89763270  0.85169231    -0.05400
C3278       C  0.96736333  0.88950572  0.83347737    -0.32800
C3279       C  0.95512035  0.86310661  0.82350291     0.36400
C3280       C  0.92815276  0.84419183  0.83145995    -0.05800
C3281       C  0.91459934  0.85196638  0.85074795    -0.32700
C3282       C  0.92707294  0.87836481  0.86100013     0.36300
H3283       H  0.98754780  0.90399450  0.82580937     0.16700
O3284       O  0.96965664  0.85628268  0.80565968    -0.60200
H3285       H  0.89409538  0.83765110  0.85773550     0.16700
O3286       O  0.91320318  0.88523745  0.87966039    -0.60300
H3287       H  0.91955333  0.88317202  0.89837767     0.43700
H3288       H  0.96690726  0.86186272  0.78673793     0.43700
C3289       C  0.53640915  0.98390629  0.84997536    -0.05400
C3290       C  0.54424627  0.97189603  0.82920139    -0.32800
C3291       C  0.57093092  0.98426465  0.81945654     0.36400
C3292       C  0.59079503  0.50900236  0.83163153    -0.05800
C3293       C  0.58243525  0.52121256  0.85189084    -0.32700
C3294       C  0.55542021  0.50830150  0.86150047     0.36300
H3295       H  0.52937091  0.95297302  0.81989155     0.16700
O3296       O  0.57725836  0.97185309  0.79867910    -0.60200
H3297       H  0.59677059  0.54089560  0.86015861     0.16700
O3298       O  0.54779567  0.52070595  0.88108414    -0.60300
H3299       H  0.54874238  0.51267593  0.89931531     0.43700
H3300       H  0.58113810  0.95867412  0.80850244     0.43700
C3301       C  0.94873089  0.98209172  0.84185897    -0.05400
C3302       C  0.93300882  0.97348917  0.81750986    -0.32800
C3303       C  0.91849437  0.98602298  0.80835631     0.36400
C3304       C  0.91926511  0.50710792  0.82316870    -0.05800
C3305       C  0.93582173  0.51593837  0.84699394    -0.32700
C3306       C  0.94997486  0.00367857  0.85705893     0.36300
H3307       H  0.93232782  0.95723394  0.80529015     0.16700
O3308       O  0.90397568  0.97750851  0.78403628    -0.60200
H3309       H  0.93712021  0.53241055  0.85930727     0.16700
O3310       O  0.96517131  0.01251264  0.88092393    -0.60300
H3311       H  0.95366388  0.50069847  0.89478278     0.43700
H3312       H  0.91650239  0.98963418  0.76912559     0.43700
C3313       C  0.49630337  0.85271428  0.69529609    -0.05400
C3314       C  0.00237147  0.84122451  0.71842318    -0.32800
C3315       C  0.98163244  0.81964493  0.73389195     0.36400
C3316       C  0.95412796  0.80937023  0.72652995    -0.05800
C3317       C  0.94822307  0.82070624  0.70307381    -0.32700
C3318       C  0.96889868  0.84215408  0.68761598     0.36300
H3319       H  0.52334910  0.84889377  0.72449994     0.16700
O3320       O  0.98853078  0.80950252  0.75669287    -0.60200
H3321       H  0.92734272  0.81352330  0.69703360     0.16700
O3322       O  0.96195759  0.85382185  0.66619520    -0.60300
H3323       H  0.95583922  0.84057332  0.65079257     0.43700
H3324       H  0.99180143  0.79516711  0.74922371     0.43700
C3325       C  0.58092897  0.94413990  0.69633559    -0.05400
C3326       C  0.58747411  0.97115134  0.69136962    -0.32800
C3327       C  0.60897951  0.99252613  0.70547223     0.36400
C3328       C  0.62439507  0.98705810  0.72505965    -0.05800
C3329       C  0.61803719  0.96001479  0.72956927    -0.32700
C3330       C  0.59657477  0.93871066  0.71544465     0.36300
H3331       H  0.57564557  0.97567664  0.67671516     0.16700
O3332       O  0.61427964  0.51869649  0.70059905    -0.60200
H3333       H  0.62968626  0.95523853  0.74420754     0.16700
O3334       O  0.59178351  0.91272216  0.71953756    -0.60300
H3335       H  0.58275310  0.90688222  0.73813522     0.43700
H3336       H  0.62691035  0.52498449  0.68429871     0.43700
C3337       C  0.53931525  0.90152435  0.60489498    -0.05400
C3338       C  0.51470027  0.88894133  0.58998094    -0.32800
C3339       C  0.51464875  0.88738585  0.56075240     0.36400
C3340       C  0.53936900  0.89970113  0.54581938    -0.05800
C3341       C  0.56390302  0.91294991  0.56040599    -0.32700
C3342       C  0.56410918  0.91351942  0.58966771     0.36300
H3343       H  0.49536543  0.87984846  0.60100400     0.16700
O3344       O  0.99037015  0.87397052  0.54695356    -0.60200
H3345       H  0.58309414  0.92156103  0.54911612     0.16700
O3346       O  0.58857584  0.92374314  0.60312223    -0.60300
H3347       H  0.59830358  0.94357899  0.59911597     0.43700
H3348       H  0.98550891  0.85460156  0.54722532     0.43700
C3349       C  0.58651719  0.58522471  0.70545016    -0.05400
C3350       C  0.61409701  0.60298405  0.69888390    -0.32800
C3351       C  0.63476773  0.60314269  0.71527276     0.36400
C3352       C  0.62791934  0.58556402  0.73873452    -0.05800
C3353       C  0.60036033  0.56777903  0.74506441    -0.32700
C3354       C  0.57981112  0.56740400  0.72865280     0.36300
H3355       H  0.61959017  0.61694486  0.68121004     0.16700
O3356       O  0.66146389  0.62117124  0.70880713    -0.60200
H3357       H  0.59462994  0.55349060  0.76248967     0.16700
O3358       O  0.55319111  0.54856411  0.73459188    -0.60300
H3359       H  0.54891494  0.55429925  0.75250239     0.43700
H3360       H  0.66651705  0.61217508  0.69424097     0.43700
C3361       C  0.49840517  0.58442205  0.70249539    -0.05400
C3362       C  0.98770516  0.60132616  0.69522082    -0.32800
C3363       C  0.96629378  0.60059722  0.71090514     0.36400
C3364       C  0.95531572  0.58276648  0.73417888    -0.05800
C3365       C  0.96556687  0.56545399  0.74083366    -0.32700
C3366       C  0.98666585  0.56601629  0.72522921     0.36300
H3367       H  0.99633911  0.61548361  0.67772459     0.16700
O3368       O  0.95662388  0.61763854  0.70360070    -0.60200
H3369       H  0.95682086  0.55092563  0.75804780     0.16700
O3370       O  0.49502779  0.54769337  0.73163032    -0.60300
H3371       H  0.00378574  0.55296517  0.75009578     0.43700
H3372       H  0.96728370  0.63415437  0.71485002     0.43700
C3373       C  0.54150847  0.57746440  0.61249625    -0.05400
C3374       C  0.56607454  0.59043642  0.59708304    -0.32800
C3375       C  0.56630264  0.58915191  0.56785932     0.36400
C3376       C  0.54168784  0.57550311  0.55321134    -0.05800
C3377       C  0.51719099  0.56167450  0.56831435    -0.32700
C3378       C  0.51694914  0.56205355  0.59772115     0.36300
H3379       H  0.58525255  0.60263439  0.60755311     0.16700
O3380       O  0.59057026  0.60348141  0.55366878    -0.60200
H3381       H  0.49810632  0.55100293  0.55723778     0.16700
O3382       O  0.49273471  0.54672744  0.61177013    -0.60300
H3383       H  0.98129958  0.55485646  0.60677134     0.43700
H3384       H  0.59755584  0.59066549  0.55189029     0.43700
loop_ 
_geom_bond_atom_site_label_1 
_geom_bond_atom_site_label_2 
_geom_bond_distance 
_geom_bond_site_symmetry_2 
_ccdc_geom_bond_type 
C1            C2   1.413       .  A
C1            C6   1.411       .  A
C1          C835   1.496       .  S
C2            C3   1.406       .  A
C2            H7   1.081       .  S
C3            C4   1.402       .  A
C3          C823   1.489   1_455  S
C4            C5   1.401       .  A
C4            H8   1.083       .  S
C5            C6   1.402       .  A
C5          C811   1.487       .  S
C6            H9   1.083       .  S
C10          C11   1.406       .  A
C10          C15   1.406       .  A
C10         C799   1.492       .  S
C11          C12   1.404       .  A
C11          H16   1.083       .  S
C12          C13   1.404       .  A
C12         C775   1.487   1_455  S
C13          C14   1.404       .  A
C13          H17   1.083       .  S
C14          C15   1.404       .  A
C14         C787   1.485       .  S
C15          H18   1.082       .  S
C19          C20   1.404       .  A
C19          C24   1.403       .  A
C19         C763   1.478       .  S
C20        C1713   1.402       .  A
C20        H2563   1.084       .  S
C21        C1712   1.402   1_455  A
C21        C1714   1.399   1_455  A
C21         C751   1.476       .  S
C22          C23   1.398       .  A
C22        C1713   1.399       .  A
C22        H1718   1.084       .  S
C23          C24   1.403       .  A
C23         C739   1.480       .  S
C24          H27   1.083       .  S
H25        C2558   1.084   1_445  S
H26        C1714   1.084   1_455  S
O28         Cr46   2.022       .  S
O28          C36   1.272       .  A
O29         Cr46   1.968       .  S
O29          C30   1.259       .  A
C30         C691   1.483       .  S
C30          O31   1.268       .  A
O31         Cr47   2.010       .  S
O32         Cr47   1.988       .  S
O32          C33   1.262       .  A
C33         C718   1.485       .  S
C33          O34   1.263       .  A
O34         Cr48   1.992       .  S
O35         Cr48   1.968       .  S
O35          C36   1.262       .  A
C36         C703   1.486       .  S
O37         Cr46   1.980       .  S
O37          C45   1.257       .  A
O38         Cr46   2.015       .  S
O38          C39   1.265       .  A
C39         C826   1.481       .  S
C39          O40   1.257       .  A
O40         Cr47   1.965       .  S
O41         Cr47   2.007       .  S
O41          C42   1.267       .  A
C42         C766   1.477       .  S
C42          O43   1.262       .  A
O43         Cr48   1.976       .  S
O44        Cr894   2.000       .  S
O44         C891   1.260       .  A
C45        C1573   1.483   1_545  S
C45         O890   1.260       .  A
Cr46         O49   1.772       .  S
Cr47         O49   1.770       .  S
Cr48        O890   2.000       .  S
Cr48         O49   1.766       .  S
O50         Cr68   2.015       .  S
O50          C58   1.269       .  A
O51         Cr68   1.955       .  S
O51          C52   1.257       .  A
C52         C658   1.479       .  S
C52          O53   1.267       .  A
O53         Cr69   2.016       .  S
O54         Cr69   1.982       .  S
O54          C55   1.261       .  A
C55         C667   1.483       .  S
C55          O56   1.266       .  A
O56         Cr70   2.000       .  S
O57         Cr70   1.966       .  S
O57          C58   1.258       .  A
C58         C694   1.483       .  S
O59         Cr68   1.965       .  S
O59          C67   1.258       .  A
O60         Cr68   2.021       .  S
O60          C61   1.267       .  A
C61         C679   1.484       .  S
C61          O62   1.258       .  A
O62         Cr69   1.969       .  S
O63         Cr69   2.007       .  S
O63          C64   1.267       .  A
C64         C742   1.478       .  S
C64          O65   1.260       .  A
O65         Cr70   1.965       .  S
O66         Cr70   2.015       .  S
O66          C67   1.266       .  A
C67         C778   1.487       .  S
Cr68         O71   1.769       .  S
Cr69         O71   1.769       .  S
Cr70         O71   1.766       .  S
O72         Cr90   1.959       .  S
O72          C80   1.258       .  A
O73         Cr90   2.021       .  S
O73          C74   1.271       .  A
C74         C706   1.486       .  S
C74          O75   1.261       .  A
O75         Cr91   1.966       .  S
O76         Cr91   1.993       .  S
O76          C77   1.265       .  A
C77         C643   1.479       .  S
C77          O78   1.262       .  A
O78         Cr92   1.985       .  S
O79         Cr92   2.012       .  S
O79          C80   1.267       .  A
C80         C655   1.478       .  S
O81         Cr90   2.015       .  S
O81          C89   1.265       .  A
O82         Cr90   1.974       .  S
O82          C83   1.256       .  A
C83        C1636   1.485   1_545  S
C83         O930   1.265       .  A
O84        Cr937   2.004       .  S
O84         C929   1.264       .  A
O85         Cr91   1.965       .  S
O85          C86   1.261       .  A
C86         C754   1.477       .  S
C86          O87   1.266       .  A
O87         Cr92   2.006       .  S
O88         Cr92   1.964       .  S
O88          C89   1.257       .  A
C89         C814   1.481       .  S
Cr90         O93   1.769       .  S
Cr91        O930   2.007       .  S
Cr91         O93   1.762       .  S
Cr92         O93   1.771       .  S
C94          C95   1.409       .  A
C94          C99   1.403       .  A
C94         C631   1.484       .  S
C95          C96   1.411       .  A
C95         H100   1.083       .  S
C96          C97   1.409       .  A
C96         C682   1.493       .  S
C97          C98   1.400       .  A
C97         H101   1.084       .  S
C98          C99   1.397       .  A
C98         C730   1.478       .  S
C99         H102   1.084       .  S
C103        C104   1.406       .  A
C103        C108   1.404       .  A
C103        C622   1.485       .  S
C104        C105   1.402       .  A
C104        H109   1.084       .  S
C105        C106   1.401       .  A
C105        C595   1.477       .  S
C106        C107   1.405       .  A
C106        H110   1.084       .  S
C107        C108   1.400       .  A
C107        C610   1.480       .  S
C108        H111   1.083       .  S
C112        C113   1.408       .  A
C112        C117   1.405       .  A
C112        C586   1.496       .  S
C113        C114   1.407       .  A
C113        H118   1.082       .  S
C114        C115   1.405       .  A
C114        C571   1.489       .  S
C115        C116   1.405       .  A
C115        H119   1.083       .  S
C116        C117   1.405       .  A
C116        C559   1.488       .  S
C117        H120   1.083       .  S
C121        C122   1.396       .  A
C121        C126   1.398       .  A
C121        C547   1.471       .  S
C122        C123   1.399       .  A
C122        H127   1.084       .  S
C123        C124   1.405       .  A
C123        C535   1.482       .  S
C124        C125   1.409       .  A
C124        H128   1.082       .  S
C125        C126   1.403       .  A
C125        C523   1.489       .  S
C126        H129   1.081       .  S
O130      Cr1840   2.018       .  S
O130        C138   1.271       .  A
O131       Cr148   1.954       .  S
O131        C132   1.257       .  A
C132        C511   1.487       .  S
C132        O133   1.270       .  A
O133       Cr149   2.022       .  S
O134       Cr149   1.968       .  S
O134        C135   1.258       .  A
C135        C802   1.470       .  S
C135        O136   1.266       .  A
O136       Cr150   2.013       .  S
O137      Cr1842   1.960       .  S
O137        C138   1.259       .  A
C138        C499   1.482       .  S
O139       Cr148   1.970       .  S
O139        C147   1.257       .  A
O140       Cr148   2.017       .  S
O140        C141   1.265       .  A
C141        C607   1.476       .  S
C141        O142   1.253       .  A
O142       Cr149   1.954       .  S
O143       Cr149   2.008       .  S
O143        C144   1.268       .  A
C144        C550   1.471       .  S
C144        O145   1.257       .  A
O145       Cr150   1.957       .  S
O146       Cr150   2.019       .  S
O146        C147   1.267       .  A
C147        C574   1.490       .  S
Cr148      O1822   2.018   1_455  S
Cr148       O151   1.767       .  S
Cr149       O151   1.769       .  S
Cr150      O1829   1.960   1_455  S
Cr150       O151   1.767       .  S
O152       Cr170   1.961       .  S
O152        C160   1.259       .  A
O153      Cr1862   2.013       .  S
O153        C154   1.267       .  A
C154        C478   1.486       .  S
C154        O155   1.259       .  A
O155      Cr1863   1.971       .  S
O156       Cr171   2.004       .  S
O156        C157   1.266       .  A
C157        C838   1.472       .  S
C157        O158   1.263       .  A
O158       Cr172   1.979       .  S
O159       Cr172   2.015       .  S
O159        C160   1.267       .  A
C160        C514   1.481       .  S
O161       Cr170   2.015       .  S
O161        C169   1.265       .  A
O162       Cr170   1.963       .  S
O162        C163   1.258       .  A
C163        C562   1.489       .  S
C163        O164   1.268       .  A
O164       Cr171   2.020       .  S
O165       Cr171   1.976       .  S
O165        C166   1.261       .  A
C166        C526   1.463       .  S
C166        O167   1.261       .  A
O167       Cr172   1.988       .  S
O168       Cr172   1.977       .  S
O168        C169   1.258       .  A
C169        C490   1.484       .  S
Cr170      O1845   2.013   1_455  S
Cr170       O173   1.772       .  S
Cr171      O1847   1.971   1_455  S
Cr171       O173   1.774       .  S
Cr172       O173   1.773       .  S
O174       Cr192   2.021       .  S
O174        C182   1.270       .  A
O175       Cr192   1.961       .  S
O175        C176   1.257       .  A
C176        C502   1.474       .  S
C176        O177   1.267       .  A
O177       Cr193   2.009       .  S
O178       Cr193   1.989       .  S
O178        C179   1.262       .  A
C179        C634   1.484       .  S
C179        O180   1.266       .  A
O180       Cr194   2.001       .  S
O181       Cr194   1.969       .  S
O181        C182   1.261       .  A
C182        C475   1.489       .  S
O183       Cr192   1.967       .  S
O183        C191   1.256       .  A
O184       Cr192   2.022       .  S
O184        C185   1.266       .  A
C185        C463   1.480       .  S
C185        O186   1.258       .  A
O186       Cr193   1.973       .  S
O187       Cr193   1.996       .  S
O187        C188   1.264       .  A
C188        C538   1.463       .  S
C188        O189   1.263       .  A
O189       Cr194   1.977       .  S
O190       Cr194   2.017       .  S
O190        C191   1.266       .  A
C191        C598   1.480       .  S
Cr192       O195   1.775       .  S
Cr193       O195   1.770       .  S
Cr194       O195   1.772       .  S
C196        C197   1.413       .  A
C196        C201   1.414       .  A
C196        C451   1.503       .  S
C197        C198   1.403       .  A
C197        H202   1.082       .  S
C198        C199   1.403       .  A
C198        C487   1.492       .  S
C199        C200   1.404       .  A
C199        H203   1.084       .  S
C200        C201   1.407       .  A
C200        C466   1.486       .  S
C201        H204   1.080       .  S
C205        C206   1.402       .  A
C205        C210   1.404       .  A
C205        C715   1.483       .  S
C206        C207   1.399   1_556  A
C206       H1057   1.083       .  S
C207        C208   1.401       .  A
C207        C430   1.478       .  S
C208        C209   1.404       .  A
C208        H212   1.083       .  S
C209        C210   1.410   1_554  A
C209        C442   1.486       .  S
C210        H213   1.083       .  S
H211       C1052   1.083       .  S
C214        C215   1.406       .  A
C214        C219   1.408       .  A
C214        C670   1.485       .  S
C215        C216   1.400   1_556  A
C215        H220   1.083       .  S
C216        C217   1.405       .  A
C216        C415   1.488       .  S
C217        C218   1.407       .  A
C217        H221   1.084       .  S
C218        C219   1.406   1_554  A
C218        C403   1.489       .  S
C219        H222   1.083       .  S
C223        C224   1.403       .  A
C223        C228   1.404       .  A
C223        C370   1.489       .  S
C224        C225   1.405       .  A
C224        H229   1.082       .  S
C225        C226   1.403       .  A
C225        C394   1.491       .  S
C226        C227   1.403       .  A
C226        H230   1.080       .  S
C227        C228   1.407       .  A
C227        C382   1.490       .  S
C228        H231   1.082       .  S
O232       Cr250   1.958       .  S
O232        C240   1.258       .  A
O233       Cr250   2.016       .  S
O233        C234   1.267       .  A
C234        C343   1.494       .  S
C234        O235   1.261       .  A
O235      Cr1943   1.977   1_455  S
O236      Cr1943   2.014       .  S
O236        C237   1.269   1_655  A
C237        C583   1.471       .  S
C237        O238   1.261       .  A
O238      Cr1944   1.969   1_455  S
O239      Cr1944   2.017   1_455  S
O239        C240   1.268       .  A
C240        C355   1.482       .  S
O241       Cr250   2.020   1_655  S
O241       C1941   1.266       .  A
O242       Cr250   1.951   1_655  S
O242       C1935   1.254       .  A
C243        C439   1.487       .  S
C243        O244   1.271       .  A
C243       O1934   1.254       .  A
O244       Cr251   2.028       .  S
O245       Cr251   1.977       .  S
O245        C246   1.261       .  A
C246        C391   1.467       .  S
C246        O247   1.262       .  A
O247       Cr252   1.993       .  S
O248       Cr252   1.967       .  S
O248        C249   1.255       .  A
C249        C418   1.481       .  S
C249       O1933   1.266       .  A
Cr250       O253   1.773   1_455  S
Cr251      O1927   1.978       .  S
Cr251      O1928   2.014       .  S
Cr251      O1945   1.771       .  S
Cr252      O1930   1.969       .  S
Cr252      O1931   2.017       .  S
Cr252      O1945   1.772       .  S
O253      Cr1943   1.771       .  S
O253      Cr1944   1.772       .  S
O254       Cr272   2.011       .  S
O254        C262   1.268       .  A
O255       Cr272   1.954       .  S
O255        C256   1.257       .  A
C256        C358   1.484       .  S
C256        O257   1.270       .  A
O257       Cr273   2.022       .  S
O258       Cr273   1.969       .  S
O258        C259   1.259       .  A
C259        C619   1.462       .  S
C259        O260   1.264       .  A
O260       Cr274   1.997       .  S
O261       Cr274   1.974       .  S
O261        C262   1.260       .  A
C262        C319   1.483       .  S
O263       Cr272   1.957       .  S
O263        C271   1.256       .  A
O264       Cr272   2.015       .  S
O264        C265   1.263       .  A
C265        C334   1.472       .  S
C265        O266   1.253       .  A
O266       Cr273   1.956       .  S
O267       Cr273   2.002       .  S
O267        C268   1.265       .  A
C268       C1225   1.466       .  S
C268        O269   1.261       .  A
O269       Cr274   1.975       .  S
O270       Cr274   2.014       .  S
O270        C271   1.267       .  A
C271        C427   1.479       .  S
Cr272       O275   1.771       .  S
Cr273       O275   1.770       .  S
Cr274       O275   1.771       .  S
O276       Cr294   2.025       .  S
O276        C284   1.270       .  A
O277       Cr294   1.968       .  S
O277        C278   1.259       .  A
C278        C322   1.481       .  S
C278        O279   1.268       .  A
O279       Cr295   2.014       .  S
O280       Cr295   1.984       .  S
O280        C281   1.263       .  A
C281        C454   1.492       .  S
C281        O282   1.267       .  A
O282       Cr296   2.004       .  S
O283       Cr296   1.971       .  S
O283        C284   1.259       .  A
C284        C346   1.495       .  S
O285       Cr294   1.965       .  S
O285        C293   1.257       .  A
O286       Cr294   2.021       .  S
O286        C287   1.266       .  A
C287        C406   1.482       .  S
C287        O288   1.257       .  A
O288       Cr295   1.970       .  S
O289       Cr295   2.001       .  S
O289        C290   1.264       .  A
C290        C367   1.465       .  S
C290        O291   1.260       .  A
O291       Cr296   1.974       .  S
O292       Cr296   2.020       .  S
O292        C293   1.268       .  A
C293        C307   1.488       .  S
Cr294       O297   1.778       .  S
Cr295       O297   1.772       .  S
Cr296       O297   1.771       .  S
C298        C299   1.403       .  A
C298        C303   1.404       .  A
C298        C646   1.479       .  S
C299        C300   1.399   1_556  A
C299       H1150   1.084       .  S
C300        C301   1.406       .  A
C300       C1177   1.481       .  S
C301        C302   1.404       .  A
C301        H305   1.084       .  S
C302        C303   1.406   1_554  A
C302        C310   1.485       .  S
C303        H306   1.084       .  S
H304       C1145   1.084       .  S
C307        C308   1.408       .  A
C307        C312   1.412       .  A
C308        C309   1.398       .  A
C308        H313   1.084       .  S
C309        C310   1.408       .  A
C309        O314   1.372       .  S
C310        C311   1.406       .  A
C311        C312   1.403       .  A
C311        H315   1.083       .  S
C312        O316   1.371       .  S
O314        H318   0.992       .  S
O316        H317   0.992       .  S
C319        C320   1.405       .  A
C319        C324   1.412       .  A
C320        C321   1.399       .  A
C320        H325   1.084       .  S
C321        C322   1.411       .  A
C321        O326   1.372       .  S
C322        C323   1.404       .  A
C323        C324   1.401       .  A
C323        H327   1.084       .  S
C324        O328   1.371       .  S
O326        H330   0.992       .  S
O328        H329   0.992       .  S
C331        C332   1.408       .  A
C331       C1182   1.405       .  A
C331       C1146   1.477       .  S
C332        C333   1.404       .  A
C332        H337   1.083       .  S
C333        C334   1.406       .  A
C333        O338   1.371       .  S
C334        C335   1.403       .  A
C335       C1182   1.391       .  A
C335       H1185   1.082       .  S
C336       C1177   1.405       .  A
C336       C1181   1.391   1_545  A
C336        O340   1.372       .  S
O338        H342   0.992       .  S
H339       C1181   1.081       .  S
O340        H341   0.992       .  S
C343        C344   1.405       .  A
C343        C348   1.415       .  A
C344        C345   1.400       .  A
C344        H349   1.083       .  S
C345        C346   1.415       .  A
C345        O350   1.372       .  S
C346        C347   1.408       .  A
C347        C348   1.406       .  A
C347        H351   1.083       .  S
C348        O352   1.371       .  S
O350        H354   0.992       .  S
O352        H353   0.992       .  S
C355        C356   1.404       .  A
C355        C360   1.412       .  A
C356        C357   1.393       .  A
C356        H361   1.084       .  S
C357        C358   1.413       .  A
C357        O362   1.372       .  S
C358        C359   1.406       .  A
C359        C360   1.403       .  A
C359        H363   1.083       .  S
C360        O364   1.371       .  S
O362        H366   0.992       .  S
O364        H365   0.992       .  S
C367        C368   1.395       .  A
C367        C372   1.405       .  A
C368        C369   1.395       .  A
C368        H373   1.083       .  S
C369        C370   1.416       .  A
C369        O374   1.372       .  S
C370        C371   1.408       .  A
C371        C372   1.403       .  A
C371        H375   1.083       .  S
C372        O376   1.372       .  S
O374        H378   0.992       .  S
O376        H377   0.992       .  S
C379        C380   1.399   1_565  A
C379        C384   1.404   1_565  A
C379       C1114   1.468       .  S
C380        C381   1.402       .  A
C380        H385   1.084   1_545  S
C381        C382   1.415       .  A
C381        O386   1.373       .  S
C382        C383   1.407       .  A
C383        C384   1.396       .  A
C383        H387   1.082       .  S
C384        O388   1.370       .  S
O386        H390   0.992       .  S
O388        H389   0.992       .  S
C391        C392   1.400       .  A
C391        C396   1.404       .  A
C392        C393   1.403       .  A
C392        H397   1.084       .  S
C393        C394   1.414       .  A
C393        O398   1.374       .  S
C394        C395   1.408       .  A
C395        C396   1.393       .  A
C395        H399   1.081       .  S
C396        O400   1.372       .  S
O398        H402   0.992       .  S
O400        H401   0.992       .  S
C403        C404   1.403       .  A
C403        C408   1.413       .  A
C404        C405   1.396       .  A
C404        H409   1.084       .  S
C405        C406   1.410       .  A
C405        O410   1.372       .  S
C406        C407   1.404       .  A
C407        C408   1.409       .  A
C407        H411   1.083       .  S
C408        O412   1.372       .  S
O410        H414   0.992       .  S
O412        H413   0.992   1_554  S
C415        C416   1.402       .  A
C415        C420   1.414       .  A
C416        C417   1.397       .  A
C416        H421   1.084       .  S
C417        C418   1.412       .  A
C417        O422   1.372       .  S
C418        C419   1.403       .  A
C419        C420   1.405       .  A
C419        H423   1.083       .  S
C420        O424   1.371       .  S
O422        H426   0.992       .  S
O424        H425   0.992       .  S
C427        C428   1.407       .  A
C427        C432   1.410       .  A
C428       C1275   1.395       .  A
C428        H433   1.084       .  S
C429        C430   1.407   1_565  A
C429       C1274   1.396       .  A
C429        O434   1.373   1_565  S
C430       C1277   1.404   1_545  A
C431        C432   1.400       .  A
C431       C1276   1.404       .  A
C431        H435   1.084       .  S
C432        O436   1.372       .  S
O434        H438   0.992   1_554  S
O436        H437   0.992       .  S
C439        C440   1.405       .  A
C439        C444   1.417       .  A
C440        C441   1.402       .  A
C440        H445   1.083       .  S
C441        C442   1.413       .  A
C441        O446   1.372       .  S
C442        C443   1.400       .  A
C443        C444   1.395       .  A
C443        H447   1.084       .  S
C444        O448   1.372       .  S
O446        H450   0.992       .  S
O448        H449   0.992       .  S
C451        C452   1.407       .  A
C451        C456   1.417       .  A
C452        C453   1.396       .  A
C452        H457   1.083       .  S
C453        C454   1.413       .  A
C453        O458   1.372       .  S
C454        C455   1.407       .  A
C455        C456   1.408       .  A
C455        H459   1.083       .  S
C456        O460   1.372       .  S
O458        H462   0.992       .  S
O460        H461   0.992       .  S
C463        C464   1.406       .  A
C463        C468   1.408       .  A
C464        C465   1.410       .  A
C464        H469   1.083       .  S
C465        C466   1.411       .  A
C465        O470   1.371       .  S
C466        C467   1.402       .  A
C467        C468   1.399       .  A
C467        H471   1.084       .  S
C468        O472   1.374       .  S
O470        H474   0.992       .  S
O472        H473   0.991       .  S
C475        C476   1.407       .  A
C475        C480   1.412       .  A
C476       C1323   1.400       .  A
C476        H481   1.083       .  S
C477        C478   1.411       .  A
C477       C1322   1.399   1_545  A
C477        O482   1.372       .  S
C478       C1325   1.407       .  A
C479        C480   1.404       .  A
C479       C1324   1.407       .  A
C479        H483   1.083       .  S
C480        O484   1.371       .  S
O482        H486   0.992       .  S
O484        H485   0.992       .  S
C487        C488   1.408       .  A
C487        C492   1.410       .  A
C488        C489   1.404       .  A
C488        H493   1.083       .  S
C489        C490   1.409       .  A
C489        O494   1.371       .  S
C490        C491   1.406       .  A
C491        C492   1.400       .  A
C491        H495   1.083       .  S
C492        O496   1.372       .  S
O494        H498   0.992       .  S
O496        H497   0.992       .  S
C499        C500   1.405       .  A
C499        C504   1.414       .  A
C500        C501   1.398       .  A
C500        H505   1.083       .  S
C501        C502   1.410       .  A
C501        O506   1.372       .  S
C502        C503   1.401       .  A
C503        C504   1.399       .  A
C503        H507   1.084       .  S
C504        O508   1.372       .  S
O506        H510   0.992       .  S
O508        H509   0.992       .  S
C511        C512   1.407       .  A
C511        C516   1.414       .  A
C512       C1359   1.405       .  A
C512        H517   1.083       .  S
C513        C514   1.411       .  A
C513       C1358   1.404   1_545  A
C513        O518   1.371       .  S
C514        C515   1.402       .  A
C515       C1362   1.393   1_545  A
C515        H519   1.084       .  S
C516       C1361   1.393       .  A
C516        O520   1.373       .  S
O518       H1368   0.992       .  S
O520        H521   0.992       .  S
H522       O1364   0.992       .  S
C523        C524   1.407       .  A
C523        C528   1.416       .  A
C524        C525   1.391       .  A
C524        H529   1.082       .  S
C525        C526   1.403       .  A
C525        O530   1.372       .  S
C526        C527   1.399       .  A
C527        C528   1.403       .  A
C527        H531   1.084       .  S
C528        O532   1.374       .  S
O530        H534   0.992       .  S
O532        H533   0.992       .  S
C535        C536   1.408       .  A
C535        C540   1.413       .  A
C536        C537   1.399       .  A
C536        H541   1.084       .  S
C537        C538   1.403       .  A
C537        O542   1.371       .  S
C538        C539   1.398       .  A
C539        C540   1.396       .  A
C539        H543   1.083       .  S
C540        O544   1.372       .  S
O542        H546   0.992       .  S
O544        H545   0.992       .  S
C547        C548   1.402       .  A
C547        C552   1.406       .  A
C548        C549   1.393       .  A
C548        H553   1.084       .  S
C549        C550   1.412       .  A
C549        O554   1.373       .  S
C550        C551   1.403       .  A
C551        C552   1.396       .  A
C551        H555   1.084       .  S
C552        O556   1.372       .  S
O554        H558   0.992       .  S
O556        H557   0.992       .  S
C559        C560   1.406       .  A
C559       C2256   1.410       .  A
C560        C561   1.404       .  A
C560        H565   1.083       .  S
C561       C2254   1.413       .  A
C561        O566   1.371       .  S
C562        C563   1.407       .  A
C562       C2253   1.413   1_455  A
C563        C564   1.397       .  A
C563        H567   1.083       .  S
C564       C2251   1.410       .  A
C564        O568   1.373       .  S
O566        H570   0.992       .  S
O568        H569   0.992       .  S
C571        C576   1.411       .  A
C571       C2264   1.403       .  A
C572        C573   1.399       .  A
C572       C2263   1.403       .  A
C572        H577   1.083       .  S
C573        C574   1.415       .  A
C573        O578   1.372       .  S
C574       C2267   1.407   1_455  A
C575        C576   1.403       .  A
C575       C2266   1.407       .  A
C575        H579   1.083       .  S
C576        O580   1.372       .  S
O578        H582   0.992       .  S
O580        H581   0.992       .  S
C583        C588   1.403       .  A
C583       C2276   1.402       .  A
C584        C585   1.398       .  A
C584       C2275   1.402       .  A
C584        H589   1.084       .  S
C585        C586   1.413       .  A
C585        O590   1.371       .  S
C586       C2279   1.412       .  A
C587        C588   1.403       .  A
C587       C2278   1.412       .  A
C587        H591   1.083       .  S
C588        O592   1.371       .  S
O590        H594   0.992       .  S
O592        H593   0.992       .  S
C595        C596   1.403       .  A
C595        C600   1.406       .  A
C596        C597   1.404       .  A
C596        H601   1.084       .  S
C597        C598   1.411       .  A
C597        O602   1.372       .  S
C598        C599   1.405       .  A
C599        C600   1.396       .  A
C599        H603   1.084       .  S
C600        O604   1.372       .  S
O602        H606   0.992       .  S
O604        H605   0.992       .  S
C607        C608   1.405       .  A
C607        C612   1.407       .  A
C608        C609   1.395       .  A
C608        H613   1.084       .  S
C609        C610   1.406       .  A
C609        O614   1.373       .  S
C610        C611   1.407       .  A
C611        C612   1.403       .  A
C611        H615   1.084       .  S
C612        O616   1.371       .  S
O614        H618   0.992       .  S
O616        H617   0.992       .  S
C619        C620   1.400       .  A
C619        C624   1.402       .  A
C620        C621   1.397       .  A
C620        H625   1.084       .  S
C621        C622   1.412       .  A
C621        O626   1.373       .  S
C622        C623   1.409       .  A
C623        C624   1.399       .  A
C623        H627   1.083       .  S
C624        O628   1.372       .  S
O626        H630   0.992       .  S
O628        H629   0.992       .  S
C631        C632   1.406       .  A
C631        C636   1.407       .  A
C632        C633   1.408       .  A
C632        H637   1.083       .  S
C633        C634   1.411       .  A
C633        O638   1.371       .  S
C634        C635   1.405       .  A
C635        C636   1.395       .  A
C635        H639   1.084       .  S
C636        O640   1.373       .  S
O638        H642   0.992       .  S
O640        H641   0.992       .  S
C643        C644   1.406       .  A
C643        C648   1.410       .  A
C644        C645   1.391       .  A
C644        H649   1.084       .  S
C645        C646   1.406       .  A
C645       O1496   1.372       .  S
C646        C647   1.407       .  A
C647        C648   1.405       .  A
C647        H651   1.083       .  S
C648        O652   1.371       .  S
O650       C1491   1.372       .  S
O650        H654   0.992       .  S
O652        H653   0.992       .  S
C655        C656   1.406       .  A
C655        C660   1.410       .  A
C656        C657   1.403       .  A
C656        H661   1.083       .  S
C657        C658   1.410       .  A
C657        O662   1.371       .  S
C658        C659   1.405       .  A
C659        C660   1.392       .  A
C659        H663   1.084       .  S
C660        O664   1.373       .  S
O662        H666   0.992       .  S
O664        H665   0.992       .  S
C667        C668   1.405       .  A
C667        C672   1.411       .  A
C668        C669   1.394       .  A
C668        H673   1.084       .  S
C669        C670   1.408       .  A
C669        O674   1.373       .  S
C670        C671   1.407       .  A
C671        C672   1.405       .  A
C671        H675   1.083       .  S
C672        O676   1.371       .  S
O674        H678   0.992       .  S
O676        H677   0.992       .  S
C679        C680   1.404       .  A
C679        C684   1.411       .  A
C680        C681   1.395       .  A
C680        H685   1.084       .  S
C681        C682   1.411       .  A
C681        O686   1.372       .  S
C682        C683   1.409       .  A
C683        C684   1.408       .  A
C683        H687   1.083       .  S
C684        O688   1.371       .  S
O686        H690   0.992       .  S
O688        H689   0.992       .  S
C691        C692   1.404       .  A
C691        C696   1.413       .  A
C692        C693   1.400       .  A
C692        H697   1.084       .  S
C693        C694   1.412       .  A
C693        O698   1.372       .  S
C694        C695   1.404       .  A
C695        C696   1.399       .  A
C695        H699   1.084       .  S
C696        O700   1.372       .  S
O698        H702   0.992       .  S
O700        H701   0.992       .  S
C703        C704   1.406       .  A
C703        C708   1.412       .  A
C704        C705   1.402       .  A
C704        H709   1.083       .  S
C705        C706   1.411       .  A
C705       O1556   1.371       .  S
C706        C707   1.406       .  A
C707        C708   1.399       .  A
C707        H711   1.084       .  S
C708        O712   1.372       .  S
O710       C1551   1.371       .  S
O710        H714   0.992       .  S
O712        H713   0.992       .  S
C715        C716   1.399       .  A
C715        C720   1.411       .  A
C716        C717   1.392       .  A
C716        H721   1.084       .  S
C717        C718   1.416       .  A
C717        O722   1.372       .  S
C718        C719   1.407       .  A
C719        C720   1.406       .  A
C719        H723   1.083       .  S
C720        O724   1.371       .  S
O722        H726   0.992   1_545  S
O724        H725   0.992       .  S
C727        C728   1.406       .  A
C727        C732   1.413       .  A
C727        C891   1.482       .  S
C728        C729   1.399       .  A
C728        H733   1.084       .  S
C729        C730   1.406       .  A
C729        O734   1.372       .  S
C730        C731   1.402       .  A
C731        C732   1.401       .  A
C731        H735   1.084       .  S
C732        O736   1.372       .  S
O734        H738   0.992       .  S
O736        H737   0.992       .  S
C739        C740   1.406       .  A
C739        C744   1.406       .  A
C740        C741   1.393       .  A
C740        H745   1.083       .  S
C741        C742   1.410       .  A
C741        O746   1.373       .  S
C742        C743   1.408       .  A
C743        C744   1.397       .  A
C743        H747   1.083       .  S
C744        O748   1.371       .  S
O746        H750   0.992       .  S
O748        H749   0.992       .  S
C751        C752   1.403       .  A
C751       C1602   1.405       .  A
C752        C753   1.389       .  A
C752        H757   1.084       .  S
C753       C1600   1.410       .  A
C753        O758   1.372       .  S
C754        C755   1.410       .  A
C754       C1599   1.409   1_545  A
C755        C756   1.401       .  A
C755        H759   1.083       .  S
C756       C1597   1.404   1_545  A
C756        O760   1.371       .  S
O758        H762   0.992       .  S
O760        H761   0.992       .  S
C763        C764   1.404       .  A
C763        C768   1.406       .  A
C764        C765   1.399       .  A
C764        H769   1.084       .  S
C765       C1612   1.411       .  A
C765        O770   1.372       .  S
C766        C767   1.407       .  A
C766       C1611   1.410   1_545  A
C767       C1614   1.398       .  A
C767        H771   1.083       .  S
C768       C1613   1.398       .  A
C768        O772   1.372       .  S
O770        H774   0.992       .  S
O772       H1619   0.992       .  S
H773       O1618   0.992       .  S
C775       C2468   1.406   1_655  A
C775       C2472   1.409       .  A
C776        C777   1.403       .  A
C776       C2467   1.406       .  A
C776       H2473   1.084       .  S
C777        C778   1.413       .  A
C777        O782   1.371       .  S
C778        C779   1.406       .  A
C779        C780   1.397       .  A
C779        H783   1.083       .  S
C780       C2467   1.409       .  A
C780        O784   1.373       .  S
H781       C2468   1.084       .  S
O782        H786   0.992       .  S
O784        H785   0.992       .  S
C787        C788   1.404       .  A
C787        C792   1.409       .  A
C788        C789   1.402       .  A
C788        H793   1.084       .  S
C789        C790   1.414       .  A
C789       O1640   1.372       .  S
C790        C791   1.405       .  A
C790        C929   1.486       .  S
C791        C792   1.399       .  A
C791        H795   1.083       .  S
C792        O796   1.372       .  S
O794       C1635   1.372   1_545  S
O794        H798   0.992       .  S
O796        H797   0.992       .  S
C799        C800   1.410       .  A
C799        C804   1.413       .  A
C800        C801   1.401       .  A
C800        H805   1.083   1_455  S
C801        C802   1.403       .  A
C801       O2498   1.371   1_455  S
C802        C803   1.401       .  A
C803        C804   1.400       .  A
C803        H807   1.084       .  S
C804        O808   1.373       .  S
O806       C2493   1.371       .  S
O806        H810   0.992       .  S
O808        H809   0.992       .  S
C811        C812   1.408       .  A
C811        C816   1.408       .  A
C812        C813   1.407       .  A
C812        H817   1.083       .  S
C813        C814   1.410       .  A
C813        O818   1.371       .  S
C814        C815   1.404       .  A
C815        C816   1.396       .  A
C815        H819   1.084       .  S
C816        O820   1.373       .  S
O818        H822   0.992       .  S
O820        H821   0.992       .  S
C823       C2516   1.408       .  A
C823       C2520   1.410       .  A
C824        C825   1.408       .  A
C824       C2515   1.408       .  A
C824        H829   1.083       .  S
C825        C826   1.410       .  A
C825        O830   1.371       .  S
C826        C827   1.403       .  A
C827        C828   1.395       .  A
C827        H831   1.084       .  S
C828       C2515   1.410       .  A
C828       O2524   1.373       .  S
O830        H834   0.992       .  S
O832       C2520   1.373       .  S
O832       H2525   0.992   1_655  S
H833       O2524   0.992       .  S
C835        C836   1.408       .  A
C835        C840   1.416       .  A
C836        C837   1.398       .  A
C836        H841   1.083       .  S
C837        C838   1.405       .  A
C837        O842   1.372       .  S
C838        C839   1.401       .  A
C839        C840   1.406       .  A
C839        H843   1.084   1_455  S
C840        O844   1.373   1_455  S
O842        H846   0.992       .  S
O844       H2537   0.992       .  S
H845       O2536   0.992       .  S
C847        C848   1.415       .  A
C847        C852   1.413       .  A
C847       C1681   1.500       .  S
C848        C849   1.406       .  A
C848        H853   1.081       .  S
C849        C850   1.402       .  A
C849       C1669   1.489   1_455  S
C850        C851   1.400       .  A
C850        H854   1.084       .  S
C851        C852   1.403       .  A
C851       C1657   1.486       .  S
C852        H855   1.083       .  S
C856        C857   1.407       .  A
C856        C861   1.406       .  A
C856       C1645   1.492       .  S
C857        C858   1.404       .  A
C857        H862   1.083       .  S
C858        C859   1.404       .  A
C858       C1621   1.486   1_455  S
C859        C860   1.404       .  A
C859        H863   1.083       .  S
C860        C861   1.402       .  A
C860       C1633   1.483       .  S
C861        H864   1.082       .  S
C865        C866   1.403       .  A
C865        C870   1.403       .  A
C865       C1609   1.476       .  S
C866       C2559   1.402       .  A
C866       H1717   1.084   1_565  S
C867       C2558   1.402   1_455  A
C867       C2560   1.399   1_455  A
C867       C1597   1.474       .  S
C868       C2559   1.399       .  A
C868        C869   1.398       .  A
C868       H2564   1.085       .  S
C869        C870   1.402       .  A
C869       C1585   1.479       .  S
C870        H873   1.083       .  S
H871       C1712   1.084   1_455  S
H872       C2560   1.085   1_455  S
O874       Cr892   2.023       .  S
O874        C882   1.272       .  A
O875       Cr892   1.969       .  S
O875        C876   1.260       .  A
C876       C1537   1.484       .  S
C876        O877   1.269       .  A
O877       Cr893   2.014       .  S
O878       Cr893   1.990       .  S
O878        C879   1.262       .  A
C879       C1564   1.488       .  S
C879        O880   1.263       .  A
O880       Cr894   1.996       .  S
O881       Cr894   1.969       .  S
O881        C882   1.263       .  A
C882       C1549   1.488       .  S
O883       Cr892   1.982       .  S
O883        C891   1.257       .  A
O884       Cr892   2.016       .  S
O884        C885   1.265       .  A
C885       C1672   1.482       .  S
C885        O886   1.257       .  A
O886       Cr893   1.968       .  S
O887       Cr893   2.010       .  S
O887        C888   1.268       .  A
C888       C1612   1.479       .  S
C888        O889   1.262       .  A
O889       Cr894   1.977       .  S
Cr892       O895   1.773       .  S
Cr893       O895   1.770       .  S
Cr894       O895   1.767       .  S
O896       Cr914   2.018       .  S
O896        C904   1.270       .  A
O897       Cr914   1.954       .  S
O897        C898   1.257       .  A
C898       C1504   1.482       .  S
C898        O899   1.268       .  A
O899       Cr915   2.017       .  S
O900       Cr915   1.982       .  S
O900        C901   1.262       .  A
C901       C1513   1.481       .  S
C901        O902   1.265       .  A
O902       Cr916   1.998       .  S
O903       Cr916   1.969       .  S
O903        C904   1.259       .  A
C904       C1540   1.488       .  S
O905       Cr914   1.967       .  S
O905        C913   1.258       .  A
O906       Cr914   2.020       .  S
O906        C907   1.266       .  A
C907       C1525   1.484       .  S
C907        O908   1.258       .  A
O908       Cr915   1.969       .  S
O909       Cr915   2.005       .  S
O909        C910   1.267       .  A
C910       C1588   1.478       .  S
C910        O911   1.261       .  A
O911       Cr916   1.967       .  S
O912       Cr916   2.015       .  S
O912        C913   1.266       .  A
C913       C1624   1.487       .  S
Cr914       O917   1.768       .  S
Cr915       O917   1.769       .  S
Cr916       O917   1.767       .  S
O918       Cr936   1.958       .  S
O918        C926   1.258       .  A
O919       Cr936   2.025       .  S
O919        C920   1.271       .  A
C920       C1552   1.488       .  S
C920        O921   1.260       .  A
O921       Cr937   1.964       .  S
O922       Cr937   1.990       .  S
O922        C923   1.264       .  A
C923       C1489   1.479       .  S
C923        O924   1.263       .  A
O924       Cr938   1.986       .  S
O925       Cr938   2.017       .  S
O925        C926   1.269       .  A
C926       C1501   1.482       .  S
O927       Cr936   2.014       .  S
O927        C935   1.265       .  A
O928       Cr936   1.977       .  S
O928        C929   1.257       .  A
O931       Cr937   1.963       .  S
O931        C932   1.260       .  A
C932       C1600   1.479       .  S
C932        O933   1.267       .  A
O933       Cr938   2.010       .  S
O934       Cr938   1.969       .  S
O934        C935   1.257       .  A
C935       C1660   1.480       .  S
Cr936       O939   1.769       .  S
Cr937       O939   1.762       .  S
Cr938       O939   1.772       .  S
C940        C941   1.409       .  A
C940        C945   1.404       .  A
C940       C1477   1.485       .  S
C941        C942   1.411       .  A
C941        H946   1.083       .  S
C942        C943   1.407       .  A
C942       C1528   1.492       .  S
C943        C944   1.399       .  A
C943        H947   1.084       .  S
C944        C945   1.397       .  A
C944       C1576   1.479       .  S
C945        H948   1.084       .  S
C949        C950   1.405       .  A
C949        C954   1.403       .  A
C949       C1468   1.482       .  S
C950        C951   1.401       .  A
C950        H955   1.084       .  S
C951        C952   1.401       .  A
C951       C1441   1.477       .  S
C952        C953   1.404       .  A
C952        H956   1.084       .  S
C953        C954   1.400       .  A
C953       C1456   1.478       .  S
C954        H957   1.083       .  S
C958        C959   1.408       .  A
C958        C963   1.407       .  A
C958       C1432   1.496       .  S
C959        C960   1.406       .  A
C959        H964   1.082       .  S
C960        C961   1.405       .  A
C960       C1417   1.487       .  S
C961        C962   1.403       .  A
C961        H965   1.084       .  S
C962        C963   1.404       .  A
C962       C1405   1.486       .  S
C963        H966   1.083       .  S
C967        C968   1.396       .  A
C967        C972   1.399       .  A
C967       C1393   1.472       .  S
C968        C969   1.399       .  A
C968        H973   1.084       .  S
C969        C970   1.402       .  A
C969       C1381   1.478       .  S
C970        C971   1.406       .  A
C970        H974   1.083       .  S
C971        C972   1.404       .  A
C971       C1369   1.486       .  S
C972        H975   1.081       .  S
O976      Cr2686   2.016       .  S
O976        C984   1.271       .  A
O977       Cr994   1.956       .  S
O977        C978   1.258       .  A
C978       C1357   1.482       .  S
C978        O979   1.269       .  A
O979       Cr995   2.019       .  S
O980       Cr995   1.969       .  S
O980        C981   1.260       .  A
C981       C1648   1.469       .  S
C981        O982   1.266       .  A
O982       Cr996   2.009       .  S
O983      Cr2688   1.960       .  S
O983        C984   1.259       .  A
C984       C1345   1.481       .  S
O985       Cr994   1.969       .  S
O985        C993   1.256       .  A
O986       Cr994   2.014       .  S
O986        C987   1.265       .  A
C987       C1453   1.474       .  S
C987        O988   1.254       .  A
O988       Cr995   1.955       .  S
O989       Cr995   2.002       .  S
O989        C990   1.266       .  A
C990       C1396   1.471       .  S
C990        O991   1.258       .  A
O991       Cr996   1.963       .  S
O992       Cr996   2.012       .  S
O992        C993   1.265       .  A
C993       C1420   1.486       .  S
Cr994      O2668   2.016   1_455  S
Cr994       O997   1.766       .  S
Cr995       O997   1.768       .  S
Cr996      O2675   1.960   1_455  S
Cr996       O997   1.766       .  S
O998      Cr1016   1.959       .  S
O998       C1006   1.259       .  A
O999      Cr2708   2.015       .  S
O999       C1000   1.268       .  A
C1000      C1324   1.488       .  S
C1000      O1001   1.260       .  A
O1001     Cr2709   1.972       .  S
O1002     Cr1017   2.004       .  S
O1002      C1003   1.266       .  A
C1003      C1684   1.474       .  S
C1003      O1004   1.263       .  A
O1004     Cr1018   1.980       .  S
O1005     Cr1018   2.019       .  S
O1005      C1006   1.268       .  A
C1006      C1360   1.486       .  S
O1007     Cr1016   2.016       .  S
O1007      C1015   1.265       .  A
O1008     Cr1016   1.965       .  S
O1008      C1009   1.258       .  A
C1009      C1408   1.490       .  S
C1009      O1010   1.269       .  A
O1010     Cr1017   2.022       .  S
O1011     Cr1017   1.971       .  S
O1011      C1012   1.261       .  A
C1012      C1372   1.462       .  S
C1012      O1013   1.262       .  A
O1013     Cr1018   1.990       .  S
O1014     Cr1018   1.974       .  S
O1014      C1015   1.256       .  A
C1015      C1336   1.483       .  S
Cr1016     O2691   2.015   1_455  S
Cr1016     O1019   1.772       .  S
Cr1017     O2693   1.972   1_455  S
Cr1017     O1019   1.772       .  S
Cr1018     O1019   1.774       .  S
O1020     Cr1038   2.019       .  S
O1020      C1028   1.270       .  A
O1021     Cr1038   1.959       .  S
O1021      C1022   1.256       .  A
C1022      C1348   1.471       .  S
C1022      O1023   1.266       .  A
O1023     Cr1039   2.006       .  S
O1024     Cr1039   1.988       .  S
O1024      C1025   1.263       .  A
C1025      C1480   1.484       .  S
C1025      O1026   1.266       .  A
O1026     Cr1040   2.000       .  S
O1027     Cr1040   1.964       .  S
O1027      C1028   1.260       .  A
C1028      C1321   1.485       .  S
O1029     Cr1038   1.965       .  S
O1029      C1037   1.256       .  A
O1030     Cr1038   2.020       .  S
O1030      C1031   1.266       .  A
C1031      C1309   1.478       .  S
C1031      O1032   1.258       .  A
O1032     Cr1039   1.972       .  S
O1033     Cr1039   1.994       .  S
O1033      C1034   1.263       .  A
C1034      C1384   1.459       .  S
C1034      O1035   1.262       .  A
O1035     Cr1040   1.974       .  S
O1036     Cr1040   2.017       .  S
O1036      C1037   1.266       .  A
C1037      C1444   1.481       .  S
Cr1038     O1041   1.775       .  S
Cr1039     O1041   1.769       .  S
Cr1040     O1041   1.771       .  S
C1042      C1043   1.411       .  A
C1042      C1047   1.411       .  A
C1042      C1297   1.497       .  S
C1043      C1044   1.401       .  A
C1043      H1048   1.083       .  S
C1044      C1045   1.403       .  A
C1044      C1333   1.490       .  S
C1045      C1046   1.405       .  A
C1045      H1049   1.084       .  S
C1046      C1047   1.405       .  A
C1046      C1312   1.484       .  S
C1047      H1050   1.081       .  S
C1051      C1052   1.404       .  A
C1051      C1056   1.406       .  A
C1051      C1561   1.487       .  S
C1052      C1053   1.400   1_556  A
C1053      C1054   1.399       .  A
C1053      C1276   1.477       .  S
C1054      C1055   1.402       .  A
C1054      H1058   1.083       .  S
C1055      C1056   1.410   1_554  A
C1055      C1288   1.486       .  S
C1056      H1059   1.083       .  S
C1060      C1061   1.405       .  A
C1060      C1065   1.407       .  A
C1060      C1516   1.484       .  S
C1061      C1062   1.400   1_556  A
C1061      H1066   1.083       .  S
C1062      C1063   1.406       .  A
C1062      C1261   1.490       .  S
C1063      C1064   1.408       .  A
C1063      H1067   1.084       .  S
C1064      C1065   1.406   1_554  A
C1064      C1249   1.490       .  S
C1065      H1068   1.083       .  S
C1069      C1070   1.403       .  A
C1069      C1074   1.405       .  A
C1069      C1216   1.490       .  S
C1070      C1071   1.404       .  A
C1070      H1075   1.082       .  S
C1071      C1072   1.402       .  A
C1071      C1240   1.489       .  S
C1072      C1073   1.402       .  A
C1072      H1076   1.080       .  S
C1073      C1074   1.407       .  A
C1073      C1228   1.489       .  S
C1074      H1077   1.082       .  S
O1078     Cr1096   1.959       .  S
O1078      C1086   1.258       .  A
O1079     Cr1096   2.017       .  S
O1079      C1080   1.267       .  A
C1080      C1189   1.494       .  S
C1080      O1081   1.260       .  A
O1081     Cr2789   1.977   1_455  S
O1082     Cr2789   2.014       .  S
O1082      C1083   1.268   1_655  A
C1083      C1429   1.470       .  S
C1083      O1084   1.260       .  A
O1084     Cr2790   1.967   1_455  S
O1085     Cr2790   2.019   1_455  S
O1085      C1086   1.269       .  A
C1086      C1201   1.485       .  S
O1087     Cr1096   2.023   1_655  S
O1087      C2787   1.267       .  A
O1088     Cr1096   1.951   1_655  S
O1088      C2781   1.254       .  A
C1089      C1285   1.488       .  S
C1089      O2780   1.254       .  A
C1089      O1090   1.272       .  A
O1090     Cr1097   2.030       .  S
O1091     Cr1097   1.973       .  S
O1091      C1092   1.261       .  A
C1092      C1237   1.465       .  S
C1092      O1093   1.263       .  A
O1093     Cr1098   1.995       .  S
O1094     Cr1098   1.965       .  S
O1094      C1095   1.255       .  A
C1095      C1264   1.482       .  S
C1095      O2779   1.267       .  A
Cr1096     O1099   1.772   1_455  S
Cr1097     O2773   1.977       .  S
Cr1097     O2774   2.014       .  S
Cr1097     O2791   1.772       .  S
Cr1098     O2776   1.967       .  S
Cr1098     O2777   2.019       .  S
Cr1098     O2791   1.770       .  S
O1099     Cr2789   1.772       .  S
O1099     Cr2790   1.770       .  S
O1100     Cr1118   2.011       .  S
O1100      C1108   1.268       .  A
O1101     Cr1118   1.959       .  S
O1101      C1102   1.257       .  A
C1102      C1204   1.487       .  S
C1102      O1103   1.270       .  A
O1103     Cr1119   2.021       .  S
O1104     Cr1119   1.969       .  S
O1104      C1105   1.259       .  A
C1105      C1465   1.460       .  S
C1105      O1106   1.262       .  A
O1106     Cr1120   1.993       .  S
O1107     Cr1120   1.974       .  S
O1107      C1108   1.260       .  A
C1108      C1165   1.484       .  S
O1109     Cr1118   1.962       .  S
O1109      C1117   1.257       .  A
O1110     Cr1118   2.017       .  S
O1110      C1111   1.264       .  A
C1111      C1180   1.475       .  S
C1111      O1112   1.253       .  A
O1112     Cr1119   1.954       .  S
O1113     Cr1119   2.004       .  S
O1113      C1114   1.266       .  A
C1114      O1115   1.263       .  A
O1115     Cr1120   1.977       .  S
O1116     Cr1120   2.010       .  S
O1116      C1117   1.265       .  A
C1117      C1273   1.480       .  S
Cr1118     O1121   1.773       .  S
Cr1119     O1121   1.770       .  S
Cr1120     O1121   1.773       .  S
O1122     Cr1140   2.024       .  S
O1122      C1130   1.270       .  A
O1123     Cr1140   1.968       .  S
O1123      C1124   1.259       .  A
C1124      C1168   1.481       .  S
C1124      O1125   1.268       .  A
O1125     Cr1141   2.013       .  S
O1126     Cr1141   1.982       .  S
O1126      C1127   1.263       .  A
C1127      C1300   1.488       .  S
C1127      O1128   1.266       .  A
O1128     Cr1142   1.999       .  S
O1129     Cr1142   1.971       .  S
O1129      C1130   1.259       .  A
C1130      C1192   1.495       .  S
O1131     Cr1140   1.965       .  S
O1131      C1139   1.257       .  A
O1132     Cr1140   2.022       .  S
O1132      C1133   1.266       .  A
C1133      C1252   1.482       .  S
C1133      O1134   1.257       .  A
O1134     Cr1141   1.969       .  S
O1135     Cr1141   2.001       .  S
O1135      C1136   1.264       .  A
C1136      C1213   1.466       .  S
C1136      O1137   1.261       .  A
O1137     Cr1142   1.975       .  S
O1138     Cr1142   2.018       .  S
O1138      C1139   1.267       .  A
C1139      C1153   1.486       .  S
Cr1140     O1143   1.777       .  S
Cr1141     O1143   1.771       .  S
Cr1142     O1143   1.771       .  S
C1144      C1145   1.403       .  A
C1144      C1149   1.404       .  A
C1144      C1492   1.479       .  S
C1145      C1146   1.398   1_556  A
C1146      C1147   1.404       .  A
C1147      C1148   1.403       .  A
C1147      H1151   1.084       .  S
C1148      C1149   1.406   1_554  A
C1148      C1156   1.484       .  S
C1149      H1152   1.084       .  S
C1153      C1154   1.408       .  A
C1153      C1158   1.412       .  A
C1154      C1155   1.397       .  A
C1154      H1159   1.084       .  S
C1155      C1156   1.407       .  A
C1155      O1160   1.372       .  S
C1156      C1157   1.406       .  A
C1157      C1158   1.403       .  A
C1157      H1161   1.084       .  S
C1158      O1162   1.371       .  S
O1160      H1164   0.992       .  S
O1162      H1163   0.992       .  S
C1165      C1166   1.405       .  A
C1165      C1170   1.412       .  A
C1166      C1167   1.399       .  A
C1166      H1171   1.084       .  S
C1167      C1168   1.410       .  A
C1167      O1172   1.372       .  S
C1168      C1169   1.404       .  A
C1169      C1170   1.401       .  A
C1169      H1173   1.084       .  S
C1170      O1174   1.372       .  S
O1172      H1176   0.992       .  S
O1174      H1175   0.992       .  S
C1177      C1178   1.410   1_545  A
C1178      C1179   1.406       .  A
C1178      H1183   1.083       .  S
C1179      C1180   1.406       .  A
C1179      O1184   1.371       .  S
C1180      C1181   1.403       .  A
C1182      O1186   1.372       .  S
O1184      H1188   0.992       .  S
O1186      H1187   0.992       .  S
C1189      C1190   1.406       .  A
C1189      C1194   1.414       .  A
C1190      C1191   1.401       .  A
C1190      H1195   1.083       .  S
C1191      C1192   1.415       .  A
C1191      O1196   1.372       .  S
C1192      C1193   1.407       .  A
C1193      C1194   1.405       .  A
C1193      H1197   1.083       .  S
C1194      O1198   1.371       .  S
O1196      H1200   0.992       .  S
O1198      H1199   0.992       .  S
C1201      C1202   1.405       .  A
C1201      C1206   1.411       .  A
C1202      C1203   1.395       .  A
C1202      H1207   1.084       .  S
C1203      C1204   1.414       .  A
C1203      O1208   1.372       .  S
C1204      C1205   1.407       .  A
C1205      C1206   1.404       .  A
C1205      H1209   1.083       .  S
C1206      O1210   1.371       .  S
O1208      H1212   0.992       .  S
O1210      H1211   0.992       .  S
C1213      C1214   1.395       .  A
C1213      C1218   1.405       .  A
C1214      C1215   1.395       .  A
C1214      H1219   1.084       .  S
C1215      C1216   1.417       .  A
C1215      O1220   1.372       .  S
C1216      C1217   1.408       .  A
C1217      C1218   1.402       .  A
C1217      H1221   1.083       .  S
C1218      O1222   1.371       .  S
O1220      H1224   0.992       .  S
O1222      H1223   0.992       .  S
C1225      C1226   1.399       .  A
C1225      C1230   1.404       .  A
C1226      C1227   1.401       .  A
C1226      H1231   1.084       .  S
C1227      C1228   1.415       .  A
C1227      O1232   1.373       .  S
C1228      C1229   1.407       .  A
C1229      C1230   1.396       .  A
C1229      H1233   1.082       .  S
C1230      O1234   1.370       .  S
O1232      H1236   0.992       .  S
O1234      H1235   0.992       .  S
C1237      C1238   1.400       .  A
C1237      C1242   1.403       .  A
C1238      C1239   1.402       .  A
C1238      H1243   1.084       .  S
C1239      C1240   1.414       .  A
C1239      O1244   1.374       .  S
C1240      C1241   1.407       .  A
C1241      C1242   1.392       .  A
C1241      H1245   1.081       .  S
C1242      O1246   1.372       .  S
O1244      H1248   0.992       .  S
O1246      H1247   0.992       .  S
C1249      C1250   1.403       .  A
C1249      C1254   1.414       .  A
C1250      C1251   1.396       .  A
C1250      H1255   1.084       .  S
C1251      C1252   1.410       .  A
C1251      O1256   1.372       .  S
C1252      C1253   1.404       .  A
C1253      C1254   1.409       .  A
C1253      H1257   1.083       .  S
C1254      O1258   1.372       .  S
O1256      H1260   0.992       .  S
O1258      H1259   0.992   1_554  S
C1261      C1262   1.402       .  A
C1261      C1266   1.415       .  A
C1262      C1263   1.397       .  A
C1262      H1267   1.084       .  S
C1263      C1264   1.412       .  A
C1263      O1268   1.372       .  S
C1264      C1265   1.403       .  A
C1265      C1266   1.406       .  A
C1265      H1269   1.083       .  S
C1266      O1270   1.371       .  S
O1268      H1272   0.991       .  S
O1270      H1271   0.992       .  S
C1273      C1274   1.406       .  A
C1273      C1278   1.411       .  A
C1274      H1279   1.084       .  S
C1275      C1276   1.405       .  A
C1275      O1280   1.373       .  S
C1277      C1278   1.400       .  A
C1277      H1281   1.084       .  S
C1278      O1282   1.372       .  S
O1280      H1284   0.992   1_554  S
O1282      H1283   0.992       .  S
C1285      C1286   1.405       .  A
C1285      C1290   1.418       .  A
C1286      C1287   1.403       .  A
C1286      H1291   1.083       .  S
C1287      C1288   1.414       .  A
C1287      O1292   1.372       .  S
C1288      C1289   1.399       .  A
C1289      C1290   1.395       .  A
C1289      H1293   1.084       .  S
C1290      O1294   1.372       .  S
O1292      H1296   0.992       .  S
O1294      H1295   0.992       .  S
C1297      C1298   1.405       .  A
C1297      C1302   1.415       .  A
C1298      C1299   1.394       .  A
C1298      H1303   1.083       .  S
C1299      C1300   1.413       .  A
C1299      O1304   1.372       .  S
C1300      C1301   1.406       .  A
C1301      C1302   1.407       .  A
C1301      H1305   1.083       .  S
C1302      O1306   1.372       .  S
O1304      H1308   0.992       .  S
O1306      H1307   0.992       .  S
C1309      C1310   1.405       .  A
C1309      C1314   1.407       .  A
C1310      C1311   1.409       .  A
C1310      H1315   1.083       .  S
C1311      C1312   1.411       .  A
C1311      O1316   1.371       .  S
C1312      C1313   1.401       .  A
C1313      C1314   1.398       .  A
C1313      H1317   1.084       .  S
C1314      O1318   1.374       .  S
O1316      H1320   0.992       .  S
O1318      H1319   0.991       .  S
C1321      C1322   1.406       .  A
C1321      C1326   1.411       .  A
C1322      H1327   1.084       .  S
C1323      C1324   1.411       .  A
C1323      O1328   1.372       .  S
C1325      C1326   1.403   1_545  A
C1325      H1329   1.083       .  S
C1326      O1330   1.371       .  S
O1328      H1332   0.992       .  S
O1330      H1331   0.992       .  S
C1333      C1334   1.408       .  A
C1333      C1338   1.410       .  A
C1334      C1335   1.404       .  A
C1334      H1339   1.083       .  S
C1335      C1336   1.408       .  A
C1335      O1340   1.371       .  S
C1336      C1337   1.406       .  A
C1337      C1338   1.400       .  A
C1337      H1341   1.084       .  S
C1338      O1342   1.372       .  S
O1340      H1344   0.992       .  S
O1342      H1343   0.992       .  S
C1345      C1346   1.405       .  A
C1345      C1350   1.414       .  A
C1346      C1347   1.397       .  A
C1346      H1351   1.083       .  S
C1347      C1348   1.408       .  A
C1347      O1352   1.372       .  S
C1348      C1349   1.400       .  A
C1349      C1350   1.398       .  A
C1349      H1353   1.084       .  S
C1350      O1354   1.372       .  S
O1352      H1356   0.992       .  S
O1354      H1355   0.992       .  S
C1357      C1358   1.406       .  A
C1357      C1362   1.412       .  A
C1358      H1363   1.083       .  S
C1359      C1360   1.413       .  A
C1359      O1364   1.371       .  S
C1360      C1361   1.404       .  A
C1361      H1365   1.084       .  S
C1362      O1366   1.373       .  S
O1366      H1367   0.992       .  S
C1369      C1370   1.408       .  A
C1369      C1374   1.414       .  A
C1370      C1371   1.391       .  A
C1370      H1375   1.082       .  S
C1371      C1372   1.403       .  A
C1371      O1376   1.372       .  S
C1372      C1373   1.399       .  A
C1373      C1374   1.401       .  A
C1373      H1377   1.084       .  S
C1374      O1378   1.374       .  S
O1376      H1380   0.992       .  S
O1378      H1379   0.992       .  S
C1381      C1382   1.406       .  A
C1381      C1386   1.412       .  A
C1382      C1383   1.398       .  A
C1382      H1387   1.084       .  S
C1383      C1384   1.403       .  A
C1383      O1388   1.372       .  S
C1384      C1385   1.397       .  A
C1385      C1386   1.394       .  A
C1385      H1389   1.083       .  S
C1386      O1390   1.372       .  S
O1388      H1392   0.992       .  S
O1390      H1391   0.992       .  S
C1393      C1394   1.403       .  A
C1393      C1398   1.406       .  A
C1394      C1395   1.395       .  A
C1394      H1399   1.084       .  S
C1395      C1396   1.412       .  A
C1395      O1400   1.372       .  S
C1396      C1397   1.403       .  A
C1397      C1398   1.394       .  A
C1397      H1401   1.084       .  S
C1398      O1402   1.372       .  S
O1400      H1404   0.992       .  S
O1402      H1403   0.992       .  S
C1405      C1406   1.405       .  A
C1405      C3102   1.408       .  A
C1406      C1407   1.405       .  A
C1406      H1411   1.084       .  S
C1407      C3100   1.413       .  A
C1407      O1412   1.371       .  S
C1408      C3099   1.413   1_455  A
C1408      C1409   1.407       .  A
C1409      C1410   1.398       .  A
C1409      H1413   1.083       .  S
C1410      C3097   1.408       .  A
C1410      O1414   1.373       .  S
O1412      H1416   0.992       .  S
O1414      H1415   0.992       .  S
C1417      C3110   1.403       .  A
C1417      C1422   1.410       .  A
C1418      C3109   1.403       .  A
C1418      C1419   1.399       .  A
C1418      H1423   1.083       .  S
C1419      C1420   1.414       .  A
C1419      O1424   1.372       .  S
C1420      C3113   1.406   1_455  A
C1421      C3112   1.406       .  A
C1421      C1422   1.400       .  A
C1421      H1425   1.083       .  S
C1422      O1426   1.372       .  S
O1424      H1428   0.992       .  S
O1426      H1427   0.992       .  S
C1429      C3122   1.402       .  A
C1429      C1434   1.403       .  A
C1430      C3121   1.401       .  A
C1430      C1431   1.398       .  A
C1430      H1435   1.084       .  S
C1431      C1432   1.415       .  A
C1431      O1436   1.372       .  S
C1432      C3125   1.412       .  A
C1433      C3124   1.412       .  A
C1433      C1434   1.402       .  A
C1433      H1437   1.083       .  S
C1434      O1438   1.371       .  S
O1436      H1440   0.992       .  S
O1438      H1439   0.992       .  S
C1441      C1442   1.403       .  A
C1441      C1446   1.406       .  A
C1442      C1443   1.403       .  A
C1442      H1447   1.084       .  S
C1443      C1444   1.411       .  A
C1443      O1448   1.372       .  S
C1444      C1445   1.406       .  A
C1445      C1446   1.396       .  A
C1445      H1449   1.084       .  S
C1446      O1450   1.372       .  S
O1448      H1452   0.992       .  S
O1450      H1451   0.992       .  S
C1453      C1454   1.405       .  A
C1453      C1458   1.407       .  A
C1454      C1455   1.395       .  A
C1454      H1459   1.084       .  S
C1455      C1456   1.406       .  A
C1455      O1460   1.373       .  S
C1456      C1457   1.406       .  A
C1457      C1458   1.401       .  A
C1457      H1461   1.084       .  S
C1458      O1462   1.371       .  S
O1460      H1464   0.992       .  S
O1462      H1463   0.992       .  S
C1465      C1466   1.400       .  A
C1465      C1470   1.402       .  A
C1466      C1467   1.397       .  A
C1466      H1471   1.084       .  S
C1467      C1468   1.411       .  A
C1467      O1472   1.373       .  S
C1468      C1469   1.408       .  A
C1469      C1470   1.399       .  A
C1469      H1473   1.083       .  S
C1470      O1474   1.372       .  S
O1472      H1476   0.992       .  S
O1474      H1475   0.992       .  S
C1477      C1478   1.407       .  A
C1477      C1482   1.408       .  A
C1478      C1479   1.409       .  A
C1478      H1483   1.083       .  S
C1479      C1480   1.411       .  A
C1479      O1484   1.371       .  S
C1480      C1481   1.405       .  A
C1481      C1482   1.394       .  A
C1481      H1485   1.084       .  S
C1482      O1486   1.373       .  S
O1484      H1488   0.992       .  S
O1486      H1487   0.992       .  S
C1489      C1490   1.407       .  A
C1489      C1494   1.409       .  A
C1490      C1491   1.391       .  A
C1490      H1495   1.084       .  S
C1491      C1492   1.406       .  A
C1492      C1493   1.407       .  A
C1493      C1494   1.404       .  A
C1493      H1497   1.083       .  S
C1494      O1498   1.371       .  S
O1496      H1500   0.992       .  S
O1498      H1499   0.992       .  S
C1501      C1502   1.407       .  A
C1501      C1506   1.411       .  A
C1502      C1503   1.404       .  A
C1502      H1507   1.083       .  S
C1503      C1504   1.411       .  A
C1503      O1508   1.371       .  S
C1504      C1505   1.405       .  A
C1505      C1506   1.392       .  A
C1505      H1509   1.084       .  S
C1506      O1510   1.372       .  S
O1508      H1512   0.992       .  S
O1510      H1511   0.992       .  S
C1513      C1514   1.406       .  A
C1513      C1518   1.410       .  A
C1514      C1515   1.395       .  A
C1514      H1519   1.084       .  S
C1515      C1516   1.408       .  A
C1515      O1520   1.373       .  S
C1516      C1517   1.407       .  A
C1517      C1518   1.404       .  A
C1517      H1521   1.083       .  S
C1518      O1522   1.371       .  S
O1520      H1524   0.992       .  S
O1522      H1523   0.992       .  S
C1525      C1526   1.403       .  A
C1525      C1530   1.411       .  A
C1526      C1527   1.395       .  A
C1526      H1531   1.084       .  S
C1527      C1528   1.411       .  A
C1527      O1532   1.372       .  S
C1528      C1529   1.409       .  A
C1529      C1530   1.408       .  A
C1529      H1533   1.083       .  S
C1530      O1534   1.371       .  S
O1532      H1536   0.992       .  S
O1534      H1535   0.992       .  S
C1537      C1538   1.404       .  A
C1537      C1542   1.412       .  A
C1538      C1539   1.402       .  A
C1538      H1543   1.084       .  S
C1539      C1540   1.415       .  A
C1539      O1544   1.372       .  S
C1540      C1541   1.405       .  A
C1541      C1542   1.400       .  A
C1541      H1545   1.083       .  S
C1542      O1546   1.372       .  S
O1544      H1548   0.992       .  S
O1546      H1547   0.992       .  S
C1549      C1550   1.407       .  A
C1549      C1554   1.412       .  A
C1550      C1551   1.403       .  A
C1550      H1555   1.083       .  S
C1551      C1552   1.411       .  A
C1552      C1553   1.406       .  A
C1553      C1554   1.399       .  A
C1553      H1557   1.083       .  S
C1554      O1558   1.372       .  S
O1556      H1560   0.992       .  S
O1558      H1559   0.992       .  S
C1561      C1562   1.401       .  A
C1561      C1566   1.412       .  A
C1562      C1563   1.394       .  A
C1562      H1567   1.084       .  S
C1563      C1564   1.416       .  A
C1563      O1568   1.372       .  S
C1564      C1565   1.407       .  A
C1565      C1566   1.407       .  A
C1565      H1569   1.083       .  S
C1566      O1570   1.371       .  S
O1568      H1572   0.992       .  S
O1570      H1571   0.992       .  S
C1573      C1574   1.406       .  A
C1573      C1578   1.413       .  A
C1574      C1575   1.400       .  A
C1574      H1579   1.084   1_565  S
C1575      C1576   1.407       .  A
C1575      O1580   1.372       .  S
C1576      C1577   1.402       .  A
C1577      C1578   1.400       .  A
C1577      H1581   1.084       .  S
C1578      O1582   1.372       .  S
O1580      H1584   0.992       .  S
O1582      H1583   0.992       .  S
C1585      C1586   1.406       .  A
C1585      C1590   1.405       .  A
C1586      C1587   1.393       .  A
C1586      H1591   1.083       .  S
C1587      C1588   1.409       .  A
C1587      O1592   1.372       .  S
C1588      C1589   1.409       .  A
C1589      C1590   1.397       .  A
C1589      H1593   1.083       .  S
C1590      O1594   1.371       .  S
O1592      H1596   0.992       .  S
O1594      H1595   0.992       .  S
C1597      C1598   1.403       .  A
C1598      C1599   1.389       .  A
C1598      H1603   1.084       .  S
C1599      O1604   1.372       .  S
C1600      C1601   1.410       .  A
C1601      C1602   1.402       .  A
C1601      H1605   1.083       .  S
C1602      O1606   1.371       .  S
O1604      H1608   0.992       .  S
O1606      H1607   0.992       .  S
C1609      C1610   1.404       .  A
C1609      C1614   1.405   1_565  A
C1610      C1611   1.397       .  A
C1610      H1615   1.084       .  S
C1611      O1616   1.372       .  S
C1612      C1613   1.406       .  A
C1613      H1617   1.083       .  S
C1614      O1618   1.372       .  S
O1616      H1620   0.992       .  S
C1621      C3314   1.406   1_655  A
C1621      C3318   1.409       .  A
C1622      C3313   1.406       .  A
C1622      C1623   1.403       .  A
C1622      H3319   1.084       .  S
C1623      C1624   1.413       .  A
C1623      O1628   1.371       .  S
C1624      C1625   1.407       .  A
C1625      C1626   1.398       .  A
C1625      H1629   1.083       .  S
C1626      C3313   1.409       .  A
C1626      O1630   1.373       .  S
H1627      C3314   1.084       .  S
O1628      H1632   0.992       .  S
O1630      H1631   0.992       .  S
C1633      C1634   1.403       .  A
C1633      C1638   1.408       .  A
C1634      C1635   1.401       .  A
C1634      H1639   1.084       .  S
C1635      C1636   1.415       .  A
C1636      C1637   1.405       .  A
C1637      C1638   1.399       .  A
C1637      H1641   1.083       .  S
C1638      O1642   1.372       .  S
O1640      H1644   0.992       .  S
O1642      H1643   0.992       .  S
C1645      C1646   1.410       .  A
C1645      C1650   1.414       .  A
C1646      C1647   1.401       .  A
C1646      H1651   1.083   1_455  S
C1647      C1648   1.404       .  A
C1647      O3344   1.371   1_455  S
C1648      C1649   1.400       .  A
C1649      C1650   1.399       .  A
C1649      H1653   1.084       .  S
C1650      O1654   1.373       .  S
O1652      C3339   1.371       .  S
O1652      H1656   0.992       .  S
O1654      H1655   0.992       .  S
C1657      C1658   1.407       .  A
C1657      C1662   1.408       .  A
C1658      C1659   1.407       .  A
C1658      H1663   1.083       .  S
C1659      C1660   1.409       .  A
C1659      O1664   1.371       .  S
C1660      C1661   1.404       .  A
C1661      C1662   1.397       .  A
C1661      H1665   1.084       .  S
C1662      O1666   1.373       .  S
O1664      H1668   0.992       .  S
O1666      H1667   0.992       .  S
C1669      C3362   1.408       .  A
C1669      C3366   1.410       .  A
C1670      C3361   1.408       .  A
C1670      C1671   1.409       .  A
C1670      H1675   1.083       .  S
C1671      C1672   1.410       .  A
C1671      O1676   1.371       .  S
C1672      C1673   1.403       .  A
C1673      C1674   1.396       .  A
C1673      H1677   1.084       .  S
C1674      C3361   1.410       .  A
C1674      O3370   1.373       .  S
O1676      H1680   0.992       .  S
O1678      C3366   1.373       .  S
O1678      H3371   0.992   1_655  S
H1679      O3370   0.992       .  S
C1681      C1682   1.409       .  A
C1681      C1686   1.417       .  A
C1682      C1683   1.400       .  A
C1682      H1687   1.083       .  S
C1683      C1684   1.406       .  A
C1683      O1688   1.372       .  S
C1684      C1685   1.401       .  A
C1685      C1686   1.406       .  A
C1685      H1689   1.084   1_455  S
C1686      O1690   1.373   1_455  S
O1688      H1692   0.992       .  S
O1690      H3383   0.992       .  S
H1691      O3382   0.992       .  S
C1693      C1694   1.413       .  A
C1693      C1698   1.411       .  A
C1693      C2527   1.496       .  S
C1694      C1695   1.406       .  A
C1694      H1699   1.081       .  S
C1695      C1696   1.402       .  A
C1695      C2515   1.488       .  S
C1696      C1697   1.401       .  A
C1696      H1700   1.083       .  S
C1697      C1698   1.402       .  A
C1697      C2503   1.487       .  S
C1698      H1701   1.083       .  S
C1702      C1703   1.406       .  A
C1702      C1707   1.407       .  A
C1702      C2491   1.492       .  S
C1703      C1704   1.404       .  A
C1703      H1708   1.083       .  S
C1704      C1705   1.404       .  A
C1704      C2467   1.487       .  S
C1705      C1706   1.404       .  A
C1705      H1709   1.083       .  S
C1706      C1707   1.404       .  A
C1706      C2479   1.485       .  S
C1707      H1710   1.082       .  S
C1711      C1712   1.404       .  A
C1711      C1716   1.403       .  A
C1711      C2455   1.478       .  S
C1713      C2443   1.476       .  S
C1714      C1715   1.398       .  A
C1715      C1716   1.403       .  A
C1715      C2431   1.480       .  S
C1716      H1719   1.083       .  S
O1720     Cr1738   2.022       .  S
O1720      C1728   1.272       .  A
O1721     Cr1738   1.968       .  S
O1721      C1722   1.259       .  A
C1722      C2383   1.483       .  S
C1722      O1723   1.268       .  A
O1723     Cr1739   2.010       .  S
O1724     Cr1739   1.988       .  S
O1724      C1725   1.262       .  A
C1725      C2410   1.485       .  S
C1725      O1726   1.263       .  A
O1726     Cr1740   1.992       .  S
O1727     Cr1740   1.968       .  S
O1727      C1728   1.262       .  A
C1728      C2395   1.486       .  S
O1729     Cr1738   1.980       .  S
O1729      C1737   1.257       .  A
O1730     Cr1738   2.015       .  S
O1730      C1731   1.265       .  A
C1731      C2518   1.481       .  S
C1731      O1732   1.257       .  A
O1732     Cr1739   1.965       .  S
O1733     Cr1739   2.007       .  S
O1733      C1734   1.267       .  A
C1734      C2458   1.477       .  S
C1734      O1735   1.262       .  A
O1735     Cr1740   1.976       .  S
O1736     Cr2586   2.000       .  S
O1736      C2583   1.260       .  A
C1737      C3265   1.483   1_545  S
C1737      O2582   1.260       .  A
Cr1738     O1741   1.772       .  S
Cr1739     O1741   1.770       .  S
Cr1740     O2582   2.000       .  S
Cr1740     O1741   1.766       .  S
O1742     Cr1760   2.015       .  S
O1742      C1750   1.269       .  A
O1743     Cr1760   1.955       .  S
O1743      C1744   1.257       .  A
C1744      C2350   1.479       .  S
C1744      O1745   1.267       .  A
O1745     Cr1761   2.015       .  S
O1746     Cr1761   1.982       .  S
O1746      C1747   1.261       .  A
C1747      C2359   1.483       .  S
C1747      O1748   1.266       .  A
O1748     Cr1762   2.000       .  S
O1749     Cr1762   1.966       .  S
O1749      C1750   1.258       .  A
C1750      C2386   1.483       .  S
O1751     Cr1760   1.965       .  S
O1751      C1759   1.258       .  A
O1752     Cr1760   2.021       .  S
O1752      C1753   1.267       .  A
C1753      C2371   1.485       .  S
C1753      O1754   1.258       .  A
O1754     Cr1761   1.969       .  S
O1755     Cr1761   2.007       .  S
O1755      C1756   1.267       .  A
C1756      C2434   1.478       .  S
C1756      O1757   1.260       .  A
O1757     Cr1762   1.965       .  S
O1758     Cr1762   2.015       .  S
O1758      C1759   1.266       .  A
C1759      C2470   1.487       .  S
Cr1760     O1763   1.769       .  S
Cr1761     O1763   1.769       .  S
Cr1762     O1763   1.766       .  S
O1764     Cr1782   1.959       .  S
O1764      C1772   1.258       .  A
O1765     Cr1782   2.021       .  S
O1765      C1766   1.271       .  A
C1766      C2398   1.486       .  S
C1766      O1767   1.261       .  A
O1767     Cr1783   1.965       .  S
O1768     Cr1783   1.994       .  S
O1768      C1769   1.265       .  A
C1769      C2335   1.479       .  S
C1769      O1770   1.262       .  A
O1770     Cr1784   1.985       .  S
O1771     Cr1784   2.012       .  S
O1771      C1772   1.267       .  A
C1772      C2347   1.478       .  S
O1773     Cr1782   2.015       .  S
O1773      C1781   1.265       .  A
O1774     Cr1782   1.974       .  S
O1774      C1775   1.256       .  A
C1775      C3328   1.485   1_545  S
C1775      O2622   1.265       .  A
O1776     Cr2629   2.004       .  S
O1776      C2621   1.264       .  A
O1777     Cr1783   1.965       .  S
O1777      C1778   1.261       .  A
C1778      C2446   1.477       .  S
C1778      O1779   1.266       .  A
O1779     Cr1784   2.006       .  S
O1780     Cr1784   1.964       .  S
O1780      C1781   1.257       .  A
C1781      C2506   1.481       .  S
Cr1782     O1785   1.769       .  S
Cr1783     O2622   2.007       .  S
Cr1783     O1785   1.762       .  S
Cr1784     O1785   1.771       .  S
C1786      C1787   1.409       .  A
C1786      C1791   1.403       .  A
C1786      C2323   1.484       .  S
C1787      C1788   1.411       .  A
C1787      H1792   1.083       .  S
C1788      C1789   1.409       .  A
C1788      C2374   1.493       .  S
C1789      C1790   1.400       .  A
C1789      H1793   1.084       .  S
C1790      C1791   1.397       .  A
C1790      C2422   1.478       .  S
C1791      H1794   1.084       .  S
C1795      C1796   1.406       .  A
C1795      C1800   1.404       .  A
C1795      C2314   1.485       .  S
C1796      C1797   1.402       .  A
C1796      H1801   1.084       .  S
C1797      C1798   1.401       .  A
C1797      C2287   1.477       .  S
C1798      C1799   1.405       .  A
C1798      H1802   1.084       .  S
C1799      C1800   1.400       .  A
C1799      C2302   1.480       .  S
C1800      H1803   1.083       .  S
C1804      C1805   1.408       .  A
C1804      C1809   1.406       .  A
C1804      C2278   1.496       .  S
C1805      C1806   1.407       .  A
C1805      H1810   1.082       .  S
C1806      C1807   1.405       .  A
C1806      C2263   1.489       .  S
C1807      C1808   1.405       .  A
C1807      H1811   1.083       .  S
C1808      C1809   1.405       .  A
C1808      C2251   1.488       .  S
C1809      H1812   1.083       .  S
C1813      C1814   1.396       .  A
C1813      C1818   1.398       .  A
C1813      C2239   1.471       .  S
C1814      C1815   1.399       .  A
C1814      H1819   1.084       .  S
C1815      C1816   1.405       .  A
C1815      C2227   1.482       .  S
C1816      C1817   1.409       .  A
C1816      H1820   1.082       .  S
C1817      C1818   1.403       .  A
C1817      C2215   1.489       .  S
C1818      H1821   1.081       .  S
O1822      C1830   1.271       .  A
O1823     Cr1840   1.954       .  S
O1823      C1824   1.257       .  A
C1824      C2203   1.487       .  S
C1824      O1825   1.270       .  A
O1825     Cr1841   2.022       .  S
O1826     Cr1841   1.968       .  S
O1826      C1827   1.258       .  A
C1827      C2494   1.470       .  S
C1827      O1828   1.266       .  A
O1828     Cr1842   2.013       .  S
O1829      C1830   1.259       .  A
C1830      C2191   1.482       .  S
O1831     Cr1840   1.970       .  S
O1831      C1839   1.257       .  A
O1832     Cr1840   2.018       .  S
O1832      C1833   1.265       .  A
C1833      C2299   1.476       .  S
C1833      O1834   1.253       .  A
O1834     Cr1841   1.954       .  S
O1835     Cr1841   2.008       .  S
O1835      C1836   1.268       .  A
C1836      C2242   1.471       .  S
C1836      O1837   1.257       .  A
O1837     Cr1842   1.957       .  S
O1838     Cr1842   2.019       .  S
O1838      C1839   1.267       .  A
C1839      C2266   1.490       .  S
Cr1840     O1843   1.767       .  S
Cr1841     O1843   1.769       .  S
Cr1842     O1843   1.767       .  S
O1844     Cr1862   1.961       .  S
O1844      C1852   1.259       .  A
O1845      C1846   1.267       .  A
C1846      C2170   1.486       .  S
C1846      O1847   1.259       .  A
O1848     Cr1863   2.004       .  S
O1848      C1849   1.266       .  A
C1849      C2530   1.472       .  S
C1849      O1850   1.263       .  A
O1850     Cr1864   1.979       .  S
O1851     Cr1864   2.015       .  S
O1851      C1852   1.267       .  A
C1852      C2206   1.481       .  S
O1853     Cr1862   2.015       .  S
O1853      C1861   1.265       .  A
O1854     Cr1862   1.963       .  S
O1854      C1855   1.258       .  A
C1855      C2254   1.489       .  S
C1855      O1856   1.268       .  A
O1856     Cr1863   2.020       .  S
O1857     Cr1863   1.976       .  S
O1857      C1858   1.261       .  A
C1858      C2218   1.463       .  S
C1858      O1859   1.261       .  A
O1859     Cr1864   1.988       .  S
O1860     Cr1864   1.977       .  S
O1860      C1861   1.258       .  A
C1861      C2182   1.484       .  S
Cr1862     O1865   1.772       .  S
Cr1863     O1865   1.774       .  S
Cr1864     O1865   1.773       .  S
O1866     Cr1884   2.021       .  S
O1866      C1874   1.270       .  A
O1867     Cr1884   1.961       .  S
O1867      C1868   1.257       .  A
C1868      C2194   1.474       .  S
C1868      O1869   1.267       .  A
O1869     Cr1885   2.009       .  S
O1870     Cr1885   1.989       .  S
O1870      C1871   1.262       .  A
C1871      C2326   1.484       .  S
C1871      O1872   1.266       .  A
O1872     Cr1886   2.001       .  S
O1873     Cr1886   1.969       .  S
O1873      C1874   1.261       .  A
C1874      C2167   1.489       .  S
O1875     Cr1884   1.967       .  S
O1875      C1883   1.256       .  A
O1876     Cr1884   2.022       .  S
O1876      C1877   1.266       .  A
C1877      C2155   1.480       .  S
C1877      O1878   1.258       .  A
O1878     Cr1885   1.973       .  S
O1879     Cr1885   1.997       .  S
O1879      C1880   1.264       .  A
C1880      C2230   1.463       .  S
C1880      O1881   1.263       .  A
O1881     Cr1886   1.977       .  S
O1882     Cr1886   2.018       .  S
O1882      C1883   1.266       .  A
C1883      C2290   1.480       .  S
Cr1884     O1887   1.775       .  S
Cr1885     O1887   1.770       .  S
Cr1886     O1887   1.772       .  S
C1888      C1889   1.413       .  A
C1888      C1893   1.414       .  A
C1888      C2143   1.503       .  S
C1889      C1890   1.403       .  A
C1889      H1894   1.082       .  S
C1890      C1891   1.403       .  A
C1890      C2179   1.492       .  S
C1891      C1892   1.404       .  A
C1891      H1895   1.084       .  S
C1892      C1893   1.407       .  A
C1892      C2158   1.486       .  S
C1893      H1896   1.080       .  S
C1897      C1898   1.402       .  A
C1897      C1902   1.404       .  A
C1897      C2407   1.483       .  S
C1898      C1899   1.399   1_556  A
C1898      H2749   1.083       .  S
C1899      C1900   1.401       .  A
C1899      C2122   1.478       .  S
C1900      C1901   1.404       .  A
C1900      H1904   1.083       .  S
C1901      C1902   1.410   1_554  A
C1901      C2134   1.487       .  S
C1902      H1905   1.083       .  S
H1903      C2744   1.083       .  S
C1906      C1907   1.406       .  A
C1906      C1911   1.408       .  A
C1906      C2362   1.485       .  S
C1907      C1908   1.400   1_556  A
C1907      H1912   1.083       .  S
C1908      C1909   1.405       .  A
C1908      C2107   1.488       .  S
C1909      C1910   1.407       .  A
C1909      H1913   1.084       .  S
C1910      C1911   1.406   1_554  A
C1910      C2095   1.489       .  S
C1911      H1914   1.083       .  S
C1915      C1916   1.403       .  A
C1915      C1920   1.404       .  A
C1915      C2062   1.489       .  S
C1916      C1917   1.405       .  A
C1916      H1921   1.082       .  S
C1917      C1918   1.404       .  A
C1917      C2086   1.491       .  S
C1918      C1919   1.403       .  A
C1918      H1922   1.080       .  S
C1919      C1920   1.407       .  A
C1919      C2074   1.490       .  S
C1920      H1923   1.082       .  S
O1924     Cr1942   1.958       .  S
O1924      C1932   1.258       .  A
O1925     Cr1942   2.016       .  S
O1925      C1926   1.267       .  A
C1926      C2035   1.494       .  S
C1926      O1927   1.261       .  A
O1928      C1929   1.268       .  A
C1929      C2275   1.471       .  S
C1929      O1930   1.261       .  A
O1931      C1932   1.268       .  A
C1932      C2047   1.482       .  S
O1933     Cr1942   2.020       .  S
O1934     Cr1942   1.951       .  S
C1935      C2131   1.487       .  S
C1935      O1936   1.271       .  A
O1936     Cr1943   2.028       .  S
O1937     Cr1943   1.977       .  S
O1937      C1938   1.261       .  A
C1938      C2083   1.467       .  S
C1938      O1939   1.262       .  A
O1939     Cr1944   1.993       .  S
O1940     Cr1944   1.967       .  S
O1940      C1941   1.255       .  A
C1941      C2110   1.481       .  S
Cr1942     O1945   1.773       .  S
O1946     Cr1964   2.011       .  S
O1946      C1954   1.268       .  A
O1947     Cr1964   1.954       .  S
O1947      C1948   1.257       .  A
C1948      C2050   1.484       .  S
C1948      O1949   1.270       .  A
O1949     Cr1965   2.022       .  S
O1950     Cr1965   1.969       .  S
O1950      C1951   1.259       .  A
C1951      C2311   1.461       .  S
C1951      O1952   1.264       .  A
O1952     Cr1966   1.997       .  S
O1953     Cr1966   1.974       .  S
O1953      C1954   1.260       .  A
C1954      C2011   1.483       .  S
O1955     Cr1964   1.958       .  S
O1955      C1963   1.256       .  A
O1956     Cr1964   2.015       .  S
O1956      C1957   1.263       .  A
C1957      C2026   1.472       .  S
C1957      O1958   1.253       .  A
O1958     Cr1965   1.956       .  S
O1959     Cr1965   2.002       .  S
O1959      C1960   1.265       .  A
C1960      C2917   1.466       .  S
C1960      O1961   1.261       .  A
O1961     Cr1966   1.975       .  S
O1962     Cr1966   2.014       .  S
O1962      C1963   1.267       .  A
C1963      C2119   1.479       .  S
Cr1964     O1967   1.771       .  S
Cr1965     O1967   1.770       .  S
Cr1966     O1967   1.771       .  S
O1968     Cr1986   2.025       .  S
O1968      C1976   1.270       .  A
O1969     Cr1986   1.968       .  S
O1969      C1970   1.259       .  A
C1970      C2014   1.481       .  S
C1970      O1971   1.268       .  A
O1971     Cr1987   2.014       .  S
O1972     Cr1987   1.984       .  S
O1972      C1973   1.263       .  A
C1973      C2146   1.492       .  S
C1973      O1974   1.267       .  A
O1974     Cr1988   2.004       .  S
O1975     Cr1988   1.971       .  S
O1975      C1976   1.259       .  A
C1976      C2038   1.495       .  S
O1977     Cr1986   1.965       .  S
O1977      C1985   1.257       .  A
O1978     Cr1986   2.021       .  S
O1978      C1979   1.266       .  A
C1979      C2098   1.482       .  S
C1979      O1980   1.257       .  A
O1980     Cr1987   1.970       .  S
O1981     Cr1987   2.001       .  S
O1981      C1982   1.264       .  A
C1982      C2059   1.465       .  S
C1982      O1983   1.260       .  A
O1983     Cr1988   1.974       .  S
O1984     Cr1988   2.020       .  S
O1984      C1985   1.268       .  A
C1985      C1999   1.488       .  S
Cr1986     O1989   1.778       .  S
Cr1987     O1989   1.772       .  S
Cr1988     O1989   1.771       .  S
C1990      C1991   1.403       .  A
C1990      C1995   1.404       .  A
C1990      C2338   1.479       .  S
C1991      C1992   1.399   1_556  A
C1991      H2842   1.084       .  S
C1992      C1993   1.406       .  A
C1992      C2869   1.481       .  S
C1993      C1994   1.404       .  A
C1993      H1997   1.084       .  S
C1994      C1995   1.406   1_554  A
C1994      C2002   1.485       .  S
C1995      H1998   1.084       .  S
H1996      C2837   1.084       .  S
C1999      C2000   1.408       .  A
C1999      C2004   1.412       .  A
C2000      C2001   1.398       .  A
C2000      H2005   1.084       .  S
C2001      C2002   1.408       .  A
C2001      O2006   1.372       .  S
C2002      C2003   1.406       .  A
C2003      C2004   1.403       .  A
C2003      H2007   1.083       .  S
C2004      O2008   1.371       .  S
O2006      H2010   0.992       .  S
O2008      H2009   0.992       .  S
C2011      C2012   1.405       .  A
C2011      C2016   1.412       .  A
C2012      C2013   1.399       .  A
C2012      H2017   1.084       .  S
C2013      C2014   1.411       .  A
C2013      O2018   1.372       .  S
C2014      C2015   1.404       .  A
C2015      C2016   1.401       .  A
C2015      H2019   1.084       .  S
C2016      O2020   1.371       .  S
O2018      H2022   0.992       .  S
O2020      H2021   0.992       .  S
C2023      C2024   1.408       .  A
C2023      C2874   1.405       .  A
C2023      C2838   1.477       .  S
C2024      C2025   1.404       .  A
C2024      H2029   1.083       .  S
C2025      C2026   1.406       .  A
C2025      O2030   1.371       .  S
C2026      C2027   1.403       .  A
C2027      C2874   1.391       .  A
C2027      H2877   1.082       .  S
C2028      C2869   1.405       .  A
C2028      C2873   1.391   1_545  A
C2028      O2032   1.372       .  S
O2030      H2034   0.992       .  S
H2031      C2873   1.081       .  S
O2032      H2033   0.992       .  S
C2035      C2036   1.405       .  A
C2035      C2040   1.415       .  A
C2036      C2037   1.400       .  A
C2036      H2041   1.083       .  S
C2037      C2038   1.415       .  A
C2037      O2042   1.372       .  S
C2038      C2039   1.408       .  A
C2039      C2040   1.406       .  A
C2039      H2043   1.083       .  S
C2040      O2044   1.371       .  S
O2042      H2046   0.992       .  S
O2044      H2045   0.992       .  S
C2047      C2048   1.404       .  A
C2047      C2052   1.412       .  A
C2048      C2049   1.393       .  A
C2048      H2053   1.084       .  S
C2049      C2050   1.413       .  A
C2049      O2054   1.372       .  S
C2050      C2051   1.406       .  A
C2051      C2052   1.403       .  A
C2051      H2055   1.083       .  S
C2052      O2056   1.371       .  S
O2054      H2058   0.992       .  S
O2056      H2057   0.992       .  S
C2059      C2060   1.395       .  A
C2059      C2064   1.405       .  A
C2060      C2061   1.395       .  A
C2060      H2065   1.083       .  S
C2061      C2062   1.416       .  A
C2061      O2066   1.372       .  S
C2062      C2063   1.408       .  A
C2063      C2064   1.403       .  A
C2063      H2067   1.083       .  S
C2064      O2068   1.372       .  S
O2066      H2070   0.992       .  S
O2068      H2069   0.992       .  S
C2071      C2072   1.399   1_565  A
C2071      C2076   1.404   1_565  A
C2071      C2806   1.468       .  S
C2072      C2073   1.402       .  A
C2072      H2077   1.084   1_545  S
C2073      C2074   1.415       .  A
C2073      O2078   1.373       .  S
C2074      C2075   1.407       .  A
C2075      C2076   1.396       .  A
C2075      H2079   1.082       .  S
C2076      O2080   1.370       .  S
O2078      H2082   0.992       .  S
O2080      H2081   0.992       .  S
C2083      C2084   1.400       .  A
C2083      C2088   1.404       .  A
C2084      C2085   1.403       .  A
C2084      H2089   1.084       .  S
C2085      C2086   1.414       .  A
C2085      O2090   1.374       .  S
C2086      C2087   1.408       .  A
C2087      C2088   1.393       .  A
C2087      H2091   1.081       .  S
C2088      O2092   1.372       .  S
O2090      H2094   0.992       .  S
O2092      H2093   0.992       .  S
C2095      C2096   1.403       .  A
C2095      C2100   1.413       .  A
C2096      C2097   1.396       .  A
C2096      H2101   1.084       .  S
C2097      C2098   1.410       .  A
C2097      O2102   1.372       .  S
C2098      C2099   1.404       .  A
C2099      C2100   1.409       .  A
C2099      H2103   1.083       .  S
C2100      O2104   1.372       .  S
O2102      H2106   0.992       .  S
O2104      H2105   0.992   1_554  S
C2107      C2108   1.402       .  A
C2107      C2112   1.414       .  A
C2108      C2109   1.397       .  A
C2108      H2113   1.084       .  S
C2109      C2110   1.412       .  A
C2109      O2114   1.372       .  S
C2110      C2111   1.403       .  A
C2111      C2112   1.405       .  A
C2111      H2115   1.083       .  S
C2112      O2116   1.371       .  S
O2114      H2118   0.992       .  S
O2116      H2117   0.992       .  S
C2119      C2120   1.407       .  A
C2119      C2124   1.410       .  A
C2120      C2967   1.395       .  A
C2120      H2125   1.084       .  S
C2121      C2966   1.396       .  A
C2121      C2122   1.407   1_565  A
C2121      O2126   1.373   1_565  S
C2122      C2969   1.404   1_545  A
C2123      C2968   1.404       .  A
C2123      C2124   1.400       .  A
C2123      H2127   1.084       .  S
C2124      O2128   1.372       .  S
O2126      H2130   0.992   1_554  S
O2128      H2129   0.992       .  S
C2131      C2132   1.405       .  A
C2131      C2136   1.417       .  A
C2132      C2133   1.402       .  A
C2132      H2137   1.083       .  S
C2133      C2134   1.413       .  A
C2133      O2138   1.372       .  S
C2134      C2135   1.400       .  A
C2135      C2136   1.395       .  A
C2135      H2139   1.084       .  S
C2136      O2140   1.372       .  S
O2138      H2142   0.992       .  S
O2140      H2141   0.992       .  S
C2143      C2144   1.407       .  A
C2143      C2148   1.417       .  A
C2144      C2145   1.396       .  A
C2144      H2149   1.083       .  S
C2145      C2146   1.413       .  A
C2145      O2150   1.372       .  S
C2146      C2147   1.407       .  A
C2147      C2148   1.408       .  A
C2147      H2151   1.083       .  S
C2148      O2152   1.372       .  S
O2150      H2154   0.992       .  S
O2152      H2153   0.992       .  S
C2155      C2156   1.406       .  A
C2155      C2160   1.408       .  A
C2156      C2157   1.410       .  A
C2156      H2161   1.083       .  S
C2157      C2158   1.411       .  A
C2157      O2162   1.371       .  S
C2158      C2159   1.402       .  A
C2159      C2160   1.399       .  A
C2159      H2163   1.084       .  S
C2160      O2164   1.374       .  S
O2162      H2166   0.992       .  S
O2164      H2165   0.991       .  S
C2167      C2168   1.407       .  A
C2167      C2172   1.412       .  A
C2168      C3015   1.400       .  A
C2168      H2173   1.083       .  S
C2169      C3014   1.399   1_545  A
C2169      C2170   1.411       .  A
C2169      O2174   1.372       .  S
C2170      C3017   1.407       .  A
C2171      C3016   1.407       .  A
C2171      C2172   1.404       .  A
C2171      H2175   1.083       .  S
C2172      O2176   1.371       .  S
O2174      H2178   0.992       .  S
O2176      H2177   0.992       .  S
C2179      C2180   1.408       .  A
C2179      C2184   1.410       .  A
C2180      C2181   1.404       .  A
C2180      H2185   1.083       .  S
C2181      C2182   1.409       .  A
C2181      O2186   1.371       .  S
C2182      C2183   1.406       .  A
C2183      C2184   1.400       .  A
C2183      H2187   1.083       .  S
C2184      O2188   1.372       .  S
O2186      H2190   0.992       .  S
O2188      H2189   0.992       .  S
C2191      C2192   1.405       .  A
C2191      C2196   1.414       .  A
C2192      C2193   1.398       .  A
C2192      H2197   1.083       .  S
C2193      C2194   1.410       .  A
C2193      O2198   1.372       .  S
C2194      C2195   1.401       .  A
C2195      C2196   1.399       .  A
C2195      H2199   1.084       .  S
C2196      O2200   1.372       .  S
O2198      H2202   0.992       .  S
O2200      H2201   0.992       .  S
C2203      C2204   1.407       .  A
C2203      C2208   1.414       .  A
C2204      C3051   1.405       .  A
C2204      H2209   1.083       .  S
C2205      C3050   1.404   1_545  A
C2205      C2206   1.411       .  A
C2205      O2210   1.371       .  S
C2206      C2207   1.402       .  A
C2207      C3054   1.393   1_545  A
C2207      H2211   1.084       .  S
C2208      C3053   1.393       .  A
C2208      O2212   1.373       .  S
O2210      H3060   0.992       .  S
O2212      H2213   0.992       .  S
H2214      O3056   0.992       .  S
C2215      C2216   1.407       .  A
C2215      C2220   1.416       .  A
C2216      C2217   1.391       .  A
C2216      H2221   1.082       .  S
C2217      C2218   1.403       .  A
C2217      O2222   1.372       .  S
C2218      C2219   1.399       .  A
C2219      C2220   1.403       .  A
C2219      H2223   1.084       .  S
C2220      O2224   1.374       .  S
O2222      H2226   0.992       .  S
O2224      H2225   0.992       .  S
C2227      C2228   1.408       .  A
C2227      C2232   1.413       .  A
C2228      C2229   1.399       .  A
C2228      H2233   1.084       .  S
C2229      C2230   1.403       .  A
C2229      O2234   1.371       .  S
C2230      C2231   1.398       .  A
C2231      C2232   1.396       .  A
C2231      H2235   1.083       .  S
C2232      O2236   1.372       .  S
O2234      H2238   0.992       .  S
O2236      H2237   0.992       .  S
C2239      C2240   1.402       .  A
C2239      C2244   1.406       .  A
C2240      C2241   1.393       .  A
C2240      H2245   1.084       .  S
C2241      C2242   1.412       .  A
C2241      O2246   1.373       .  S
C2242      C2243   1.403       .  A
C2243      C2244   1.396       .  A
C2243      H2247   1.084       .  S
C2244      O2248   1.372       .  S
O2246      H2250   0.992       .  S
O2248      H2249   0.992       .  S
C2251      C2252   1.406   1_455  A
C2252      C2253   1.404       .  A
C2252      H2257   1.083       .  S
C2253      O2258   1.371       .  S
C2254      C2255   1.407       .  A
C2255      C2256   1.397       .  A
C2255      H2259   1.083       .  S
C2256      O2260   1.373       .  S
O2258      H2262   0.992       .  S
O2260      H2261   0.992       .  S
C2263      C2268   1.411   1_455  A
C2264      C2265   1.399       .  A
C2264      H2269   1.083       .  S
C2265      C2266   1.415       .  A
C2265      O2270   1.372       .  S
C2267      C2268   1.403       .  A
C2267      H2271   1.083       .  S
C2268      O2272   1.372       .  S
O2270      H2274   0.992       .  S
O2272      H2273   0.992       .  S
C2275      C2280   1.403       .  A
C2276      C2277   1.398   1_455  A
C2276      H2281   1.084   1_455  S
C2277      C2278   1.413   1_655  A
C2277      O2282   1.371       .  S
C2279      C2280   1.403       .  A
C2279      H2283   1.083       .  S
C2280      O2284   1.371       .  S
O2282      H2286   0.992       .  S
O2284      H2285   0.992       .  S
C2287      C2288   1.403       .  A
C2287      C2292   1.406       .  A
C2288      C2289   1.404       .  A
C2288      H2293   1.084       .  S
C2289      C2290   1.411       .  A
C2289      O2294   1.372       .  S
C2290      C2291   1.405       .  A
C2291      C2292   1.396       .  A
C2291      H2295   1.084       .  S
C2292      O2296   1.372       .  S
O2294      H2298   0.992       .  S
O2296      H2297   0.992       .  S
C2299      C2300   1.405       .  A
C2299      C2304   1.407       .  A
C2300      C2301   1.395       .  A
C2300      H2305   1.084       .  S
C2301      C2302   1.406       .  A
C2301      O2306   1.373       .  S
C2302      C2303   1.407       .  A
C2303      C2304   1.403       .  A
C2303      H2307   1.084       .  S
C2304      O2308   1.371       .  S
O2306      H2310   0.992       .  S
O2308      H2309   0.992       .  S
C2311      C2312   1.400       .  A
C2311      C2316   1.402       .  A
C2312      C2313   1.397       .  A
C2312      H2317   1.084       .  S
C2313      C2314   1.412       .  A
C2313      O2318   1.373       .  S
C2314      C2315   1.409       .  A
C2315      C2316   1.399       .  A
C2315      H2319   1.083       .  S
C2316      O2320   1.372       .  S
O2318      H2322   0.992       .  S
O2320      H2321   0.992       .  S
C2323      C2324   1.406       .  A
C2323      C2328   1.407       .  A
C2324      C2325   1.408       .  A
C2324      H2329   1.083       .  S
C2325      C2326   1.411       .  A
C2325      O2330   1.371       .  S
C2326      C2327   1.405       .  A
C2327      C2328   1.395       .  A
C2327      H2331   1.084       .  S
C2328      O2332   1.373       .  S
O2330      H2334   0.992       .  S
O2332      H2333   0.992       .  S
C2335      C2336   1.406       .  A
C2335      C2340   1.410       .  A
C2336      C2337   1.391       .  A
C2336      H2341   1.084       .  S
C2337      C2338   1.406       .  A
C2337      O3188   1.372       .  S
C2338      C2339   1.407       .  A
C2339      C2340   1.405       .  A
C2339      H2343   1.083       .  S
C2340      O2344   1.371       .  S
O2342      C3183   1.372       .  S
O2342      H2346   0.992       .  S
O2344      H2345   0.992       .  S
C2347      C2348   1.406       .  A
C2347      C2352   1.410       .  A
C2348      C2349   1.402       .  A
C2348      H2353   1.083       .  S
C2349      C2350   1.410       .  A
C2349      O2354   1.371       .  S
C2350      C2351   1.405       .  A
C2351      C2352   1.392       .  A
C2351      H2355   1.084       .  S
C2352      O2356   1.373       .  S
O2354      H2358   0.992       .  S
O2356      H2357   0.992       .  S
C2359      C2360   1.405       .  A
C2359      C2364   1.411       .  A
C2360      C2361   1.394       .  A
C2360      H2365   1.084       .  S
C2361      C2362   1.408       .  A
C2361      O2366   1.373       .  S
C2362      C2363   1.407       .  A
C2363      C2364   1.405       .  A
C2363      H2367   1.083       .  S
C2364      O2368   1.371       .  S
O2366      H2370   0.992       .  S
O2368      H2369   0.992       .  S
C2371      C2372   1.404       .  A
C2371      C2376   1.411       .  A
C2372      C2373   1.395       .  A
C2372      H2377   1.084       .  S
C2373      C2374   1.411       .  A
C2373      O2378   1.372       .  S
C2374      C2375   1.409       .  A
C2375      C2376   1.408       .  A
C2375      H2379   1.083       .  S
C2376      O2380   1.371       .  S
O2378      H2382   0.992       .  S
O2380      H2381   0.992       .  S
C2383      C2384   1.404       .  A
C2383      C2388   1.413       .  A
C2384      C2385   1.400       .  A
C2384      H2389   1.084       .  S
C2385      C2386   1.413       .  A
C2385      O2390   1.372       .  S
C2386      C2387   1.404       .  A
C2387      C2388   1.399       .  A
C2387      H2391   1.084       .  S
C2388      O2392   1.372       .  S
O2390      H2394   0.992       .  S
O2392      H2393   0.992       .  S
C2395      C2396   1.406       .  A
C2395      C2400   1.412       .  A
C2396      C2397   1.402       .  A
C2396      H2401   1.083       .  S
C2397      C2398   1.411       .  A
C2397      O3248   1.371       .  S
C2398      C2399   1.406       .  A
C2399      C2400   1.399       .  A
C2399      H2403   1.084       .  S
C2400      O2404   1.372       .  S
O2402      C3243   1.371       .  S
O2402      H2406   0.992       .  S
O2404      H2405   0.992       .  S
C2407      C2408   1.399       .  A
C2407      C2412   1.411       .  A
C2408      C2409   1.392       .  A
C2408      H2413   1.084       .  S
C2409      C2410   1.416       .  A
C2409      O2414   1.372       .  S
C2410      C2411   1.407       .  A
C2411      C2412   1.406       .  A
C2411      H2415   1.083       .  S
C2412      O2416   1.371       .  S
O2414      H2418   0.992   1_545  S
O2416      H2417   0.992       .  S
C2419      C2420   1.406       .  A
C2419      C2424   1.413       .  A
C2419      C2583   1.482       .  S
C2420      C2421   1.400       .  A
C2420      H2425   1.084       .  S
C2421      C2422   1.406       .  A
C2421      O2426   1.372       .  S
C2422      C2423   1.402       .  A
C2423      C2424   1.401       .  A
C2423      H2427   1.084       .  S
C2424      O2428   1.372       .  S
O2426      H2430   0.992       .  S
O2428      H2429   0.992       .  S
C2431      C2432   1.406       .  A
C2431      C2436   1.406       .  A
C2432      C2433   1.393       .  A
C2432      H2437   1.083       .  S
C2433      C2434   1.410       .  A
C2433      O2438   1.373       .  S
C2434      C2435   1.408       .  A
C2435      C2436   1.398       .  A
C2435      H2439   1.083       .  S
C2436      O2440   1.371       .  S
O2438      H2442   0.992       .  S
O2440      H2441   0.992       .  S
C2443      C2444   1.403       .  A
C2443      C3294   1.405       .  A
C2444      C2445   1.389       .  A
C2444      H2449   1.084       .  S
C2445      C3292   1.410       .  A
C2445      O2450   1.372       .  S
C2446      C3291   1.409   1_545  A
C2446      C2447   1.410       .  A
C2447      C2448   1.400       .  A
C2447      H2451   1.083       .  S
C2448      C3289   1.404   1_545  A
C2448      O2452   1.371       .  S
O2450      H2454   0.992       .  S
O2452      H2453   0.992       .  S
C2455      C2456   1.404       .  A
C2455      C2460   1.406       .  A
C2456      C2457   1.399       .  A
C2456      H2461   1.084       .  S
C2457      C3304   1.411       .  A
C2457      O2462   1.372       .  S
C2458      C3303   1.410   1_545  A
C2458      C2459   1.407       .  A
C2459      C3306   1.398       .  A
C2459      H2463   1.083       .  S
C2460      C3305   1.398       .  A
C2460      O2464   1.372       .  S
O2462      H2466   0.992       .  S
O2464      H3311   0.992       .  S
H2465      O3310   0.992       .  S
C2468      C2469   1.403   1_455  A
C2469      C2470   1.413       .  A
C2469      O2474   1.371       .  S
C2470      C2471   1.406       .  A
C2471      C2472   1.397       .  A
C2471      H2475   1.083       .  S
C2472      O2476   1.373       .  S
O2474      H2478   0.992       .  S
O2476      H2477   0.992       .  S
C2479      C2480   1.404       .  A
C2479      C2484   1.409       .  A
C2480      C2481   1.402       .  A
C2480      H2485   1.084       .  S
C2481      C2482   1.414       .  A
C2481      O3332   1.372       .  S
C2482      C2483   1.405       .  A
C2482      C2621   1.486       .  S
C2483      C2484   1.399       .  A
C2483      H2487   1.083       .  S
C2484      O2488   1.372       .  S
O2486      C3327   1.372   1_545  S
O2486      H2490   0.992       .  S
O2488      H2489   0.992       .  S
C2491      C2492   1.410       .  A
C2491      C2496   1.413       .  A
C2492      C2493   1.401       .  A
C2492      H2497   1.083       .  S
C2493      C2494   1.403       .  A
C2494      C2495   1.401       .  A
C2495      C2496   1.400       .  A
C2495      H2499   1.084       .  S
C2496      O2500   1.373       .  S
O2498      H2502   0.992       .  S
O2500      H2501   0.992       .  S
C2503      C2504   1.408       .  A
C2503      C2508   1.408       .  A
C2504      C2505   1.407       .  A
C2504      H2509   1.083       .  S
C2505      C2506   1.410       .  A
C2505      O2510   1.371       .  S
C2506      C2507   1.404       .  A
C2507      C2508   1.396       .  A
C2507      H2511   1.084       .  S
C2508      O2512   1.373       .  S
O2510      H2514   0.992       .  S
O2512      H2513   0.992       .  S
C2516      C2517   1.408       .  A
C2516      H2521   1.083       .  S
C2517      C2518   1.410       .  A
C2517      O2522   1.371       .  S
C2518      C2519   1.403       .  A
C2519      C2520   1.395       .  A
C2519      H2523   1.084       .  S
O2522      H2526   0.992       .  S
C2527      C2528   1.408       .  A
C2527      C2532   1.416       .  A
C2528      C2529   1.398       .  A
C2528      H2533   1.083       .  S
C2529      C2530   1.405       .  A
C2529      O2534   1.372       .  S
C2530      C2531   1.401       .  A
C2531      C2532   1.406       .  A
C2531      H2535   1.084       .  S
C2532      O2536   1.373       .  S
O2534      H2538   0.992       .  S
C2539      C2540   1.415       .  A
C2539      C2544   1.413       .  A
C2539      C3373   1.500       .  S
C2540      C2541   1.406       .  A
C2540      H2545   1.081       .  S
C2541      C2542   1.402       .  A
C2541      C3361   1.489       .  S
C2542      C2543   1.400       .  A
C2542      H2546   1.084       .  S
C2543      C2544   1.403       .  A
C2543      C3349   1.486       .  S
C2544      H2547   1.083       .  S
C2548      C2549   1.407       .  A
C2548      C2553   1.406       .  A
C2548      C3337   1.492       .  S
C2549      C2550   1.404       .  A
C2549      H2554   1.083       .  S
C2550      C2551   1.404       .  A
C2550      C3313   1.486       .  S
C2551      C2552   1.404       .  A
C2551      H2555   1.083       .  S
C2552      C2553   1.402       .  A
C2552      C3325   1.483       .  S
C2553      H2556   1.082       .  S
C2557      C2558   1.403       .  A
C2557      C2562   1.403       .  A
C2557      C3301   1.476       .  S
C2559      C3289   1.474       .  S
C2560      C2561   1.398       .  A
C2561      C2562   1.402       .  A
C2561      C3277   1.479       .  S
C2562      H2565   1.083       .  S
O2566     Cr2584   2.023       .  S
O2566      C2574   1.272       .  A
O2567     Cr2584   1.969       .  S
O2567      C2568   1.260       .  A
C2568      C3229   1.484       .  S
C2568      O2569   1.269       .  A
O2569     Cr2585   2.014       .  S
O2570     Cr2585   1.990       .  S
O2570      C2571   1.262       .  A
C2571      C3256   1.488       .  S
C2571      O2572   1.263       .  A
O2572     Cr2586   1.996       .  S
O2573     Cr2586   1.969       .  S
O2573      C2574   1.263       .  A
C2574      C3241   1.488       .  S
O2575     Cr2584   1.982       .  S
O2575      C2583   1.257       .  A
O2576     Cr2584   2.016       .  S
O2576      C2577   1.265       .  A
C2577      C3364   1.482       .  S
C2577      O2578   1.257       .  A
O2578     Cr2585   1.968       .  S
O2579     Cr2585   2.010       .  S
O2579      C2580   1.268       .  A
C2580      C3304   1.479       .  S
C2580      O2581   1.262       .  A
O2581     Cr2586   1.977       .  S
Cr2584     O2587   1.773       .  S
Cr2585     O2587   1.770       .  S
Cr2586     O2587   1.767       .  S
O2588     Cr2606   2.018       .  S
O2588      C2596   1.271       .  A
O2589     Cr2606   1.954       .  S
O2589      C2590   1.257       .  A
C2590      C3196   1.482       .  S
C2590      O2591   1.268       .  A
O2591     Cr2607   2.017       .  S
O2592     Cr2607   1.982       .  S
O2592      C2593   1.262       .  A
C2593      C3205   1.481       .  S
C2593      O2594   1.265       .  A
O2594     Cr2608   1.998       .  S
O2595     Cr2608   1.969       .  S
O2595      C2596   1.259       .  A
C2596      C3232   1.488       .  S
O2597     Cr2606   1.967       .  S
O2597      C2605   1.257       .  A
O2598     Cr2606   2.020       .  S
O2598      C2599   1.266       .  A
C2599      C3217   1.484       .  S
C2599      O2600   1.258       .  A
O2600     Cr2607   1.969       .  S
O2601     Cr2607   2.005       .  S
O2601      C2602   1.267       .  A
C2602      C3280   1.478       .  S
C2602      O2603   1.261       .  A
O2603     Cr2608   1.967       .  S
O2604     Cr2608   2.014       .  S
O2604      C2605   1.266       .  A
C2605      C3316   1.487       .  S
Cr2606     O2609   1.769       .  S
Cr2607     O2609   1.769       .  S
Cr2608     O2609   1.767       .  S
O2610     Cr2628   1.958       .  S
O2610      C2618   1.258       .  A
O2611     Cr2628   2.025       .  S
O2611      C2612   1.271       .  A
C2612      C3244   1.488       .  S
C2612      O2613   1.260       .  A
O2613     Cr2629   1.964       .  S
O2614     Cr2629   1.990       .  S
O2614      C2615   1.264       .  A
C2615      C3181   1.479       .  S
C2615      O2616   1.263       .  A
O2616     Cr2630   1.987       .  S
O2617     Cr2630   2.017       .  S
O2617      C2618   1.269       .  A
C2618      C3193   1.482       .  S
O2619     Cr2628   2.014       .  S
O2619      C2627   1.265       .  A
O2620     Cr2628   1.977       .  S
O2620      C2621   1.257       .  A
O2623     Cr2629   1.962       .  S
O2623      C2624   1.260       .  A
C2624      C3292   1.479       .  S
C2624      O2625   1.267       .  A
O2625     Cr2630   2.010       .  S
O2626     Cr2630   1.969       .  S
O2626      C2627   1.258       .  A
C2627      C3352   1.480       .  S
Cr2628     O2631   1.769       .  S
Cr2629     O2631   1.762       .  S
Cr2630     O2631   1.772       .  S
C2632      C2633   1.409       .  A
C2632      C2637   1.404       .  A
C2632      C3169   1.485       .  S
C2633      C2634   1.411       .  A
C2633      H2638   1.083       .  S
C2634      C2635   1.407       .  A
C2634      C3220   1.492       .  S
C2635      C2636   1.399       .  A
C2635      H2639   1.084       .  S
C2636      C2637   1.397       .  A
C2636      C3268   1.479       .  S
C2637      H2640   1.084       .  S
C2641      C2642   1.405       .  A
C2641      C2646   1.403       .  A
C2641      C3160   1.482       .  S
C2642      C2643   1.401       .  A
C2642      H2647   1.084       .  S
C2643      C2644   1.401       .  A
C2643      C3133   1.477       .  S
C2644      C2645   1.404       .  A
C2644      H2648   1.084       .  S
C2645      C2646   1.400       .  A
C2645      C3148   1.478       .  S
C2646      H2649   1.083       .  S
C2650      C2651   1.408       .  A
C2650      C2655   1.407       .  A
C2650      C3124   1.496       .  S
C2651      C2652   1.406       .  A
C2651      H2656   1.082       .  S
C2652      C2653   1.405       .  A
C2652      C3109   1.487       .  S
C2653      C2654   1.403       .  A
C2653      H2657   1.084       .  S
C2654      C2655   1.404       .  A
C2654      C3097   1.486       .  S
C2655      H2658   1.083       .  S
C2659      C2660   1.396       .  A
C2659      C2664   1.399       .  A
C2659      C3085   1.473       .  S
C2660      C2661   1.399       .  A
C2660      H2665   1.084       .  S
C2661      C2662   1.402       .  A
C2661      C3073   1.478       .  S
C2662      C2663   1.406       .  A
C2662      H2666   1.083       .  S
C2663      C2664   1.404       .  A
C2663      C3061   1.486       .  S
C2664      H2667   1.081       .  S
O2668      C2676   1.271       .  A
O2669     Cr2686   1.956       .  S
O2669      C2670   1.258       .  A
C2670      C3049   1.482       .  S
C2670      O2671   1.269       .  A
O2671     Cr2687   2.019       .  S
O2672     Cr2687   1.969       .  S
O2672      C2673   1.260       .  A
C2673      C3340   1.469       .  S
C2673      O2674   1.266       .  A
O2674     Cr2688   2.009       .  S
O2675      C2676   1.259       .  A
C2676      C3037   1.481       .  S
O2677     Cr2686   1.969       .  S
O2677      C2685   1.256       .  A
O2678     Cr2686   2.014       .  S
O2678      C2679   1.265       .  A
C2679      C3145   1.474       .  S
C2679      O2680   1.254       .  A
O2680     Cr2687   1.955       .  S
O2681     Cr2687   2.002       .  S
O2681      C2682   1.266       .  A
C2682      C3088   1.471       .  S
C2682      O2683   1.258       .  A
O2683     Cr2688   1.963       .  S
O2684     Cr2688   2.012       .  S
O2684      C2685   1.265       .  A
C2685      C3112   1.486       .  S
Cr2686     O2689   1.766       .  S
Cr2687     O2689   1.768       .  S
Cr2688     O2689   1.766       .  S
O2690     Cr2708   1.959       .  S
O2690      C2698   1.259       .  A
O2691      C2692   1.268       .  A
C2692      C3016   1.488       .  S
C2692      O2693   1.260       .  A
O2694     Cr2709   2.005       .  S
O2694      C2695   1.266       .  A
C2695      C3376   1.474       .  S
C2695      O2696   1.263       .  A
O2696     Cr2710   1.980       .  S
O2697     Cr2710   2.019       .  S
O2697      C2698   1.268       .  A
C2698      C3052   1.486       .  S
O2699     Cr2708   2.017       .  S
O2699      C2707   1.265       .  A
O2700     Cr2708   1.965       .  S
O2700      C2701   1.258       .  A
C2701      C3100   1.490       .  S
C2701      O2702   1.269       .  A
O2702     Cr2709   2.022       .  S
O2703     Cr2709   1.971       .  S
O2703      C2704   1.261       .  A
C2704      C3064   1.462       .  S
C2704      O2705   1.262       .  A
O2705     Cr2710   1.990       .  S
O2706     Cr2710   1.974       .  S
O2706      C2707   1.256       .  A
C2707      C3028   1.483       .  S
Cr2708     O2711   1.772       .  S
Cr2709     O2711   1.772       .  S
Cr2710     O2711   1.774       .  S
O2712     Cr2730   2.019       .  S
O2712      C2720   1.270       .  A
O2713     Cr2730   1.959       .  S
O2713      C2714   1.256       .  A
C2714      C3040   1.471       .  S
C2714      O2715   1.266       .  A
O2715     Cr2731   2.006       .  S
O2716     Cr2731   1.988       .  S
O2716      C2717   1.263       .  A
C2717      C3172   1.484       .  S
C2717      O2718   1.266       .  A
O2718     Cr2732   2.000       .  S
O2719     Cr2732   1.964       .  S
O2719      C2720   1.260       .  A
C2720      C3013   1.485       .  S
O2721     Cr2730   1.965       .  S
O2721      C2729   1.256       .  A
O2722     Cr2730   2.020       .  S
O2722      C2723   1.266       .  A
C2723      C3001   1.478       .  S
C2723      O2724   1.258       .  A
O2724     Cr2731   1.972       .  S
O2725     Cr2731   1.994       .  S
O2725      C2726   1.263       .  A
C2726      C3076   1.459       .  S
C2726      O2727   1.262       .  A
O2727     Cr2732   1.974       .  S
O2728     Cr2732   2.017       .  S
O2728      C2729   1.266       .  A
C2729      C3136   1.481       .  S
Cr2730     O2733   1.775       .  S
Cr2731     O2733   1.769       .  S
Cr2732     O2733   1.771       .  S
C2734      C2735   1.411       .  A
C2734      C2739   1.411       .  A
C2734      C2989   1.497       .  S
C2735      C2736   1.401       .  A
C2735      H2740   1.083       .  S
C2736      C2737   1.403       .  A
C2736      C3025   1.490       .  S
C2737      C2738   1.405       .  A
C2737      H2741   1.084       .  S
C2738      C2739   1.405       .  A
C2738      C3004   1.484       .  S
C2739      H2742   1.081       .  S
C2743      C2744   1.404       .  A
C2743      C2748   1.406       .  A
C2743      C3253   1.487       .  S
C2744      C2745   1.400   1_556  A
C2745      C2746   1.399       .  A
C2745      C2968   1.477       .  S
C2746      C2747   1.402       .  A
C2746      H2750   1.083       .  S
C2747      C2748   1.410   1_554  A
C2747      C2980   1.486       .  S
C2748      H2751   1.083       .  S
C2752      C2753   1.405       .  A
C2752      C2757   1.407       .  A
C2752      C3208   1.484       .  S
C2753      C2754   1.401   1_556  A
C2753      H2758   1.083       .  S
C2754      C2755   1.406       .  A
C2754      C2953   1.490       .  S
C2755      C2756   1.408       .  A
C2755      H2759   1.084       .  S
C2756      C2757   1.406   1_554  A
C2756      C2941   1.490       .  S
C2757      H2760   1.083       .  S
C2761      C2762   1.403       .  A
C2761      C2766   1.405       .  A
C2761      C2908   1.490       .  S
C2762      C2763   1.404       .  A
C2762      H2767   1.082       .  S
C2763      C2764   1.402       .  A
C2763      C2932   1.489       .  S
C2764      C2765   1.402       .  A
C2764      H2768   1.080       .  S
C2765      C2766   1.407       .  A
C2765      C2920   1.489       .  S
C2766      H2769   1.082       .  S
O2770     Cr2788   1.959       .  S
O2770      C2778   1.258       .  A
O2771     Cr2788   2.017       .  S
O2771      C2772   1.267       .  A
C2772      C2881   1.494       .  S
C2772      O2773   1.260       .  A
O2774      C2775   1.268       .  A
C2775      C3121   1.470       .  S
C2775      O2776   1.260       .  A
O2777      C2778   1.269       .  A
C2778      C2893   1.485       .  S
O2779     Cr2788   2.023       .  S
O2780     Cr2788   1.950       .  S
C2781      C2977   1.488       .  S
C2781      O2782   1.272       .  A
O2782     Cr2789   2.030       .  S
O2783     Cr2789   1.973       .  S
O2783      C2784   1.261       .  A
C2784      C2929   1.465       .  S
C2784      O2785   1.263       .  A
O2785     Cr2790   1.995       .  S
O2786     Cr2790   1.965       .  S
O2786      C2787   1.255       .  A
C2787      C2956   1.482       .  S
Cr2788     O2791   1.772       .  S
O2792     Cr2810   2.012       .  S
O2792      C2800   1.268       .  A
O2793     Cr2810   1.959       .  S
O2793      C2794   1.257       .  A
C2794      C2896   1.487       .  S
C2794      O2795   1.270       .  A
O2795     Cr2811   2.021       .  S
O2796     Cr2811   1.969       .  S
O2796      C2797   1.259       .  A
C2797      C3157   1.460       .  S
C2797      O2798   1.262       .  A
O2798     Cr2812   1.993       .  S
O2799     Cr2812   1.974       .  S
O2799      C2800   1.260       .  A
C2800      C2857   1.484       .  S
O2801     Cr2810   1.962       .  S
O2801      C2809   1.257       .  A
O2802     Cr2810   2.018       .  S
O2802      C2803   1.264       .  A
C2803      C2872   1.475       .  S
C2803      O2804   1.253       .  A
O2804     Cr2811   1.954       .  S
O2805     Cr2811   2.004       .  S
O2805      C2806   1.266       .  A
C2806      O2807   1.262       .  A
O2807     Cr2812   1.977       .  S
O2808     Cr2812   2.010       .  S
O2808      C2809   1.265       .  A
C2809      C2965   1.480       .  S
Cr2810     O2813   1.773       .  S
Cr2811     O2813   1.770       .  S
Cr2812     O2813   1.773       .  S
O2814     Cr2832   2.023       .  S
O2814      C2822   1.270       .  A
O2815     Cr2832   1.968       .  S
O2815      C2816   1.259       .  A
C2816      C2860   1.481       .  S
C2816      O2817   1.268       .  A
O2817     Cr2833   2.013       .  S
O2818     Cr2833   1.982       .  S
O2818      C2819   1.263       .  A
C2819      C2992   1.488       .  S
C2819      O2820   1.266       .  A
O2820     Cr2834   1.999       .  S
O2821     Cr2834   1.971       .  S
O2821      C2822   1.259       .  A
C2822      C2884   1.495       .  S
O2823     Cr2832   1.964       .  S
O2823      C2831   1.257       .  A
O2824     Cr2832   2.022       .  S
O2824      C2825   1.266       .  A
C2825      C2944   1.482       .  S
C2825      O2826   1.257       .  A
O2826     Cr2833   1.969       .  S
O2827     Cr2833   2.001       .  S
O2827      C2828   1.264       .  A
C2828      C2905   1.466       .  S
C2828      O2829   1.261       .  A
O2829     Cr2834   1.975       .  S
O2830     Cr2834   2.018       .  S
O2830      C2831   1.267       .  A
C2831      C2845   1.486       .  S
Cr2832     O2835   1.777       .  S
Cr2833     O2835   1.771       .  S
Cr2834     O2835   1.771       .  S
C2836      C2837   1.403       .  A
C2836      C2841   1.404       .  A
C2836      C3184   1.479       .  S
C2837      C2838   1.398   1_556  A
C2838      C2839   1.404       .  A
C2839      C2840   1.403       .  A
C2839      H2843   1.084       .  S
C2840      C2841   1.406   1_554  A
C2840      C2848   1.484       .  S
C2841      H2844   1.084       .  S
C2845      C2846   1.408       .  A
C2845      C2850   1.412       .  A
C2846      C2847   1.397       .  A
C2846      H2851   1.084       .  S
C2847      C2848   1.407       .  A
C2847      O2852   1.372       .  S
C2848      C2849   1.406       .  A
C2849      C2850   1.403       .  A
C2849      H2853   1.084       .  S
C2850      O2854   1.371       .  S
O2852      H2856   0.992       .  S
O2854      H2855   0.992       .  S
C2857      C2858   1.405       .  A
C2857      C2862   1.412       .  A
C2858      C2859   1.399       .  A
C2858      H2863   1.084       .  S
C2859      C2860   1.410       .  A
C2859      O2864   1.372       .  S
C2860      C2861   1.404       .  A
C2861      C2862   1.401       .  A
C2861      H2865   1.084       .  S
C2862      O2866   1.372       .  S
O2864      H2868   0.992       .  S
O2866      H2867   0.992       .  S
C2869      C2870   1.410   1_545  A
C2870      C2871   1.406       .  A
C2870      H2875   1.083       .  S
C2871      C2872   1.406       .  A
C2871      O2876   1.371       .  S
C2872      C2873   1.403       .  A
C2874      O2878   1.372       .  S
O2876      H2880   0.992       .  S
O2878      H2879   0.992       .  S
C2881      C2882   1.406       .  A
C2881      C2886   1.414       .  A
C2882      C2883   1.401       .  A
C2882      H2887   1.083       .  S
C2883      C2884   1.415       .  A
C2883      O2888   1.372       .  S
C2884      C2885   1.407       .  A
C2885      C2886   1.405       .  A
C2885      H2889   1.083       .  S
C2886      O2890   1.371       .  S
O2888      H2892   0.992       .  S
O2890      H2891   0.992       .  S
C2893      C2894   1.405       .  A
C2893      C2898   1.411       .  A
C2894      C2895   1.395       .  A
C2894      H2899   1.084       .  S
C2895      C2896   1.414       .  A
C2895      O2900   1.372       .  S
C2896      C2897   1.407       .  A
C2897      C2898   1.404       .  A
C2897      H2901   1.083       .  S
C2898      O2902   1.371       .  S
O2900      H2904   0.992       .  S
O2902      H2903   0.992       .  S
C2905      C2906   1.395       .  A
C2905      C2910   1.405       .  A
C2906      C2907   1.395       .  A
C2906      H2911   1.084       .  S
C2907      C2908   1.417       .  A
C2907      O2912   1.372       .  S
C2908      C2909   1.408       .  A
C2909      C2910   1.402       .  A
C2909      H2913   1.083       .  S
C2910      O2914   1.371       .  S
O2912      H2916   0.992       .  S
O2914      H2915   0.992       .  S
C2917      C2918   1.399       .  A
C2917      C2922   1.404       .  A
C2918      C2919   1.401       .  A
C2918      H2923   1.084       .  S
C2919      C2920   1.416       .  A
C2919      O2924   1.373       .  S
C2920      C2921   1.407       .  A
C2921      C2922   1.396       .  A
C2921      H2925   1.082       .  S
C2922      O2926   1.370       .  S
O2924      H2928   0.992       .  S
O2926      H2927   0.992       .  S
C2929      C2930   1.400       .  A
C2929      C2934   1.403       .  A
C2930      C2931   1.402       .  A
C2930      H2935   1.084       .  S
C2931      C2932   1.414       .  A
C2931      O2936   1.374       .  S
C2932      C2933   1.407       .  A
C2933      C2934   1.392       .  A
C2933      H2937   1.081       .  S
C2934      O2938   1.372       .  S
O2936      H2940   0.992       .  S
O2938      H2939   0.992       .  S
C2941      C2942   1.403       .  A
C2941      C2946   1.414       .  A
C2942      C2943   1.396       .  A
C2942      H2947   1.084       .  S
C2943      C2944   1.410       .  A
C2943      O2948   1.372       .  S
C2944      C2945   1.404       .  A
C2945      C2946   1.409       .  A
C2945      H2949   1.083       .  S
C2946      O2950   1.372       .  S
O2948      H2952   0.992       .  S
O2950      H2951   0.992   1_554  S
C2953      C2954   1.402       .  A
C2953      C2958   1.415       .  A
C2954      C2955   1.397       .  A
C2954      H2959   1.084       .  S
C2955      C2956   1.412       .  A
C2955      O2960   1.372       .  S
C2956      C2957   1.403       .  A
C2957      C2958   1.406       .  A
C2957      H2961   1.083       .  S
C2958      O2962   1.371       .  S
O2960      H2964   0.991       .  S
O2962      H2963   0.992       .  S
C2965      C2966   1.406       .  A
C2965      C2970   1.411       .  A
C2966      H2971   1.084       .  S
C2967      C2968   1.405       .  A
C2967      O2972   1.373       .  S
C2969      C2970   1.400       .  A
C2969      H2973   1.084       .  S
C2970      O2974   1.372       .  S
O2972      H2976   0.992   1_554  S
O2974      H2975   0.992       .  S
C2977      C2978   1.405       .  A
C2977      C2982   1.418       .  A
C2978      C2979   1.403       .  A
C2978      H2983   1.083       .  S
C2979      C2980   1.414       .  A
C2979      O2984   1.372       .  S
C2980      C2981   1.399       .  A
C2981      C2982   1.395       .  A
C2981      H2985   1.084       .  S
C2982      O2986   1.372       .  S
O2984      H2988   0.992       .  S
O2986      H2987   0.992       .  S
C2989      C2990   1.405       .  A
C2989      C2994   1.415       .  A
C2990      C2991   1.394       .  A
C2990      H2995   1.083       .  S
C2991      C2992   1.413       .  A
C2991      O2996   1.372       .  S
C2992      C2993   1.406       .  A
C2993      C2994   1.407       .  A
C2993      H2997   1.083       .  S
C2994      O2998   1.372       .  S
O2996      H3000   0.992       .  S
O2998      H2999   0.992       .  S
C3001      C3002   1.405       .  A
C3001      C3006   1.407       .  A
C3002      C3003   1.409       .  A
C3002      H3007   1.083       .  S
C3003      C3004   1.411       .  A
C3003      O3008   1.371       .  S
C3004      C3005   1.401       .  A
C3005      C3006   1.398       .  A
C3005      H3009   1.084       .  S
C3006      O3010   1.374       .  S
O3008      H3012   0.992       .  S
O3010      H3011   0.991       .  S
C3013      C3014   1.406       .  A
C3013      C3018   1.411       .  A
C3014      H3019   1.084       .  S
C3015      C3016   1.411       .  A
C3015      O3020   1.372       .  S
C3017      C3018   1.403   1_545  A
C3017      H3021   1.083       .  S
C3018      O3022   1.371       .  S
O3020      H3024   0.992       .  S
O3022      H3023   0.992       .  S
C3025      C3026   1.408       .  A
C3025      C3030   1.410       .  A
C3026      C3027   1.404       .  A
C3026      H3031   1.083       .  S
C3027      C3028   1.408       .  A
C3027      O3032   1.371       .  S
C3028      C3029   1.406       .  A
C3029      C3030   1.400       .  A
C3029      H3033   1.084       .  S
C3030      O3034   1.372       .  S
O3032      H3036   0.992       .  S
O3034      H3035   0.992       .  S
C3037      C3038   1.405       .  A
C3037      C3042   1.414       .  A
C3038      C3039   1.397       .  A
C3038      H3043   1.083       .  S
C3039      C3040   1.408       .  A
C3039      O3044   1.372       .  S
C3040      C3041   1.400       .  A
C3041      C3042   1.398       .  A
C3041      H3045   1.084       .  S
C3042      O3046   1.372       .  S
O3044      H3048   0.992       .  S
O3046      H3047   0.992       .  S
C3049      C3050   1.406       .  A
C3049      C3054   1.412       .  A
C3050      H3055   1.083       .  S
C3051      C3052   1.413       .  A
C3051      O3056   1.371       .  S
C3052      C3053   1.404       .  A
C3053      H3057   1.084       .  S
C3054      O3058   1.373       .  S
O3058      H3059   0.992       .  S
C3061      C3062   1.408       .  A
C3061      C3066   1.414       .  A
C3062      C3063   1.391       .  A
C3062      H3067   1.082       .  S
C3063      C3064   1.403       .  A
C3063      O3068   1.372       .  S
C3064      C3065   1.399       .  A
C3065      C3066   1.401       .  A
C3065      H3069   1.084       .  S
C3066      O3070   1.374       .  S
O3068      H3072   0.992       .  S
O3070      H3071   0.992       .  S
C3073      C3074   1.406       .  A
C3073      C3078   1.412       .  A
C3074      C3075   1.398       .  A
C3074      H3079   1.084       .  S
C3075      C3076   1.403       .  A
C3075      O3080   1.372       .  S
C3076      C3077   1.397       .  A
C3077      C3078   1.394       .  A
C3077      H3081   1.083       .  S
C3078      O3082   1.372       .  S
O3080      H3084   0.992       .  S
O3082      H3083   0.992       .  S
C3085      C3086   1.403       .  A
C3085      C3090   1.406       .  A
C3086      C3087   1.395       .  A
C3086      H3091   1.084       .  S
C3087      C3088   1.412       .  A
C3087      O3092   1.372       .  S
C3088      C3089   1.403       .  A
C3089      C3090   1.394       .  A
C3089      H3093   1.084       .  S
C3090      O3094   1.372       .  S
O3092      H3096   0.992       .  S
O3094      H3095   0.992       .  S
C3097      C3098   1.405   1_455  A
C3098      C3099   1.405       .  A
C3098      H3103   1.084       .  S
C3099      O3104   1.371       .  S
C3100      C3101   1.407       .  A
C3101      C3102   1.398       .  A
C3101      H3105   1.083       .  S
C3102      O3106   1.373       .  S
O3104      H3108   0.992       .  S
O3106      H3107   0.992       .  S
C3109      C3114   1.410   1_455  A
C3110      C3111   1.399       .  A
C3110      H3115   1.083       .  S
C3111      C3112   1.414       .  A
C3111      O3116   1.372       .  S
C3113      C3114   1.400       .  A
C3113      H3117   1.083       .  S
C3114      O3118   1.372       .  S
O3116      H3120   0.992       .  S
O3118      H3119   0.992       .  S
C3121      C3126   1.402       .  A
C3122      C3123   1.398   1_455  A
C3122      H3127   1.084   1_455  S
C3123      C3124   1.415   1_655  A
C3123      O3128   1.372       .  S
C3125      C3126   1.402       .  A
C3125      H3129   1.083       .  S
C3126      O3130   1.371       .  S
O3128      H3132   0.992       .  S
O3130      H3131   0.992       .  S
C3133      C3134   1.403       .  A
C3133      C3138   1.406       .  A
C3134      C3135   1.403       .  A
C3134      H3139   1.084       .  S
C3135      C3136   1.411       .  A
C3135      O3140   1.372       .  S
C3136      C3137   1.406       .  A
C3137      C3138   1.396       .  A
C3137      H3141   1.084       .  S
C3138      O3142   1.372       .  S
O3140      H3144   0.992       .  S
O3142      H3143   0.992       .  S
C3145      C3146   1.405       .  A
C3145      C3150   1.407       .  A
C3146      C3147   1.395       .  A
C3146      H3151   1.084       .  S
C3147      C3148   1.406       .  A
C3147      O3152   1.373       .  S
C3148      C3149   1.406       .  A
C3149      C3150   1.401       .  A
C3149      H3153   1.084       .  S
C3150      O3154   1.371       .  S
O3152      H3156   0.992       .  S
O3154      H3155   0.992       .  S
C3157      C3158   1.400       .  A
C3157      C3162   1.402       .  A
C3158      C3159   1.397       .  A
C3158      H3163   1.084       .  S
C3159      C3160   1.411       .  A
C3159      O3164   1.373       .  S
C3160      C3161   1.408       .  A
C3161      C3162   1.399       .  A
C3161      H3165   1.083       .  S
C3162      O3166   1.372       .  S
O3164      H3168   0.992       .  S
O3166      H3167   0.992       .  S
C3169      C3170   1.407       .  A
C3169      C3174   1.408       .  A
C3170      C3171   1.409       .  A
C3170      H3175   1.083       .  S
C3171      C3172   1.411       .  A
C3171      O3176   1.371       .  S
C3172      C3173   1.405       .  A
C3173      C3174   1.394       .  A
C3173      H3177   1.084       .  S
C3174      O3178   1.373       .  S
O3176      H3180   0.992       .  S
O3178      H3179   0.992       .  S
C3181      C3182   1.407       .  A
C3181      C3186   1.409       .  A
C3182      C3183   1.391       .  A
C3182      H3187   1.084       .  S
C3183      C3184   1.406       .  A
C3184      C3185   1.407       .  A
C3185      C3186   1.404       .  A
C3185      H3189   1.083       .  S
C3186      O3190   1.371       .  S
O3188      H3192   0.992       .  S
O3190      H3191   0.992       .  S
C3193      C3194   1.407       .  A
C3193      C3198   1.411       .  A
C3194      C3195   1.404       .  A
C3194      H3199   1.083       .  S
C3195      C3196   1.411       .  A
C3195      O3200   1.371       .  S
C3196      C3197   1.405       .  A
C3197      C3198   1.392       .  A
C3197      H3201   1.084       .  S
C3198      O3202   1.372       .  S
O3200      H3204   0.992       .  S
O3202      H3203   0.992       .  S
C3205      C3206   1.406       .  A
C3205      C3210   1.410       .  A
C3206      C3207   1.395       .  A
C3206      H3211   1.084       .  S
C3207      C3208   1.408       .  A
C3207      O3212   1.373       .  S
C3208      C3209   1.407       .  A
C3209      C3210   1.404       .  A
C3209      H3213   1.083       .  S
C3210      O3214   1.371       .  S
O3212      H3216   0.992       .  S
O3214      H3215   0.992       .  S
C3217      C3218   1.403       .  A
C3217      C3222   1.411       .  A
C3218      C3219   1.395       .  A
C3218      H3223   1.084       .  S
C3219      C3220   1.411       .  A
C3219      O3224   1.372       .  S
C3220      C3221   1.409       .  A
C3221      C3222   1.408       .  A
C3221      H3225   1.083       .  S
C3222      O3226   1.371       .  S
O3224      H3228   0.992       .  S
O3226      H3227   0.992       .  S
C3229      C3230   1.404       .  A
C3229      C3234   1.412       .  A
C3230      C3231   1.402       .  A
C3230      H3235   1.084       .  S
C3231      C3232   1.415       .  A
C3231      O3236   1.372       .  S
C3232      C3233   1.405       .  A
C3233      C3234   1.400       .  A
C3233      H3237   1.083       .  S
C3234      O3238   1.372       .  S
O3236      H3240   0.992       .  S
O3238      H3239   0.992       .  S
C3241      C3242   1.407       .  A
C3241      C3246   1.412       .  A
C3242      C3243   1.403       .  A
C3242      H3247   1.083       .  S
C3243      C3244   1.411       .  A
C3244      C3245   1.406       .  A
C3245      C3246   1.399       .  A
C3245      H3249   1.083       .  S
C3246      O3250   1.372       .  S
O3248      H3252   0.992       .  S
O3250      H3251   0.992       .  S
C3253      C3254   1.401       .  A
C3253      C3258   1.412       .  A
C3254      C3255   1.394       .  A
C3254      H3259   1.084       .  S
C3255      C3256   1.416       .  A
C3255      O3260   1.372       .  S
C3256      C3257   1.407       .  A
C3257      C3258   1.407       .  A
C3257      H3261   1.083       .  S
C3258      O3262   1.371       .  S
O3260      H3264   0.992       .  S
O3262      H3263   0.992       .  S
C3265      C3266   1.406       .  A
C3265      C3270   1.413       .  A
C3266      C3267   1.400       .  A
C3266      H3271   1.084   1_565  S
C3267      C3268   1.407       .  A
C3267      O3272   1.372       .  S
C3268      C3269   1.402       .  A
C3269      C3270   1.400       .  A
C3269      H3273   1.084       .  S
C3270      O3274   1.372       .  S
O3272      H3276   0.992       .  S
O3274      H3275   0.992       .  S
C3277      C3278   1.406       .  A
C3277      C3282   1.406       .  A
C3278      C3279   1.393       .  A
C3278      H3283   1.083       .  S
C3279      C3280   1.409       .  A
C3279      O3284   1.372       .  S
C3280      C3281   1.409       .  A
C3281      C3282   1.397       .  A
C3281      H3285   1.083       .  S
C3282      O3286   1.371       .  S
O3284      H3288   0.992       .  S
O3286      H3287   0.992       .  S
C3289      C3290   1.403       .  A
C3290      C3291   1.389       .  A
C3290      H3295   1.084       .  S
C3291      O3296   1.372       .  S
C3292      C3293   1.410       .  A
C3293      C3294   1.402       .  A
C3293      H3297   1.083       .  S
C3294      O3298   1.371       .  S
O3296      H3300   0.992       .  S
O3298      H3299   0.992       .  S
C3301      C3302   1.404       .  A
C3301      C3306   1.405   1_565  A
C3302      C3303   1.397       .  A
C3302      H3307   1.084       .  S
C3303      O3308   1.372       .  S
C3304      C3305   1.406       .  A
C3305      H3309   1.083       .  S
C3306      O3310   1.372       .  S
O3308      H3312   0.992       .  S
C3314      C3315   1.403   1_455  A
C3315      C3316   1.413       .  A
C3315      O3320   1.371       .  S
C3316      C3317   1.407       .  A
C3317      C3318   1.398       .  A
C3317      H3321   1.083       .  S
C3318      O3322   1.373       .  S
O3320      H3324   0.992       .  S
O3322      H3323   0.992       .  S
C3325      C3326   1.404       .  A
C3325      C3330   1.408       .  A
C3326      C3327   1.401       .  A
C3326      H3331   1.084       .  S
C3327      C3328   1.415       .  A
C3328      C3329   1.405       .  A
C3329      C3330   1.399       .  A
C3329      H3333   1.083       .  S
C3330      O3334   1.372       .  S
O3332      H3336   0.992       .  S
O3334      H3335   0.992       .  S
C3337      C3338   1.410       .  A
C3337      C3342   1.414       .  A
C3338      C3339   1.401       .  A
C3338      H3343   1.083       .  S
C3339      C3340   1.404       .  A
C3340      C3341   1.400       .  A
C3341      C3342   1.399       .  A
C3341      H3345   1.084       .  S
C3342      O3346   1.373       .  S
O3344      H3348   0.992       .  S
O3346      H3347   0.992       .  S
C3349      C3350   1.407       .  A
C3349      C3354   1.408       .  A
C3350      C3351   1.407       .  A
C3350      H3355   1.083       .  S
C3351      C3352   1.409       .  A
C3351      O3356   1.371       .  S
C3352      C3353   1.404       .  A
C3353      C3354   1.397       .  A
C3353      H3357   1.084       .  S
C3354      O3358   1.373       .  S
O3356      H3360   0.992       .  S
O3358      H3359   0.992       .  S
C3362      C3363   1.409       .  A
C3362      H3367   1.083       .  S
C3363      C3364   1.410       .  A
C3363      O3368   1.371       .  S
C3364      C3365   1.403       .  A
C3365      C3366   1.396       .  A
C3365      H3369   1.084       .  S
O3368      H3372   0.992       .  S
C3373      C3374   1.409       .  A
C3373      C3378   1.417       .  A
C3374      C3375   1.400       .  A
C3374      H3379   1.083       .  S
C3375      C3376   1.406       .  A
C3375      O3380   1.372       .  S
C3376      C3377   1.401       .  A
C3377      C3378   1.406       .  A
C3377      H3381   1.084       .  S
C3378      O3382   1.373       .  S
O3380      H3384   0.992       .  S
