geometry optimzed in LAMMPS
_audit_creation_date              2020-11-30 
_audit_creation_method            'lammps2cif' 
_symmetry_space_group_name_H-M    'P1' 
_symmetry_Int_Tables_number       1 
_symmetry_cell_setting            triclinic 
loop_ 
_symmetry_equiv_pos_as_xyz 
  x,y,z 
_cell_length_a                    40.29263157 
_cell_length_b                    67.11650700479161 
_cell_length_c                    27.637012597345898 
_cell_angle_alpha                 90.74419870236389 
_cell_angle_beta                  90.22603727795419 
_cell_angle_gamma                 89.03950512469783 
loop_ 
_atom_site_label 
_atom_site_type_symbol 
_atom_site_fract_x 
_atom_site_fract_y 
_atom_site_fract_z 
_atom_site_charge 
C1          C  0.15719353  0.36409333  0.51177596     0.03700
C2          C  0.14759450  0.34408795  0.50985595    -0.12400
C3          C  0.11438537  0.33888865  0.50249356     0.01200
C4          C  0.09036607  0.35410293  0.49678471    -0.10900
C5          C  0.09952039  0.37420360  0.49905639     0.03700
C6          C  0.13300121  0.37917526  0.50595373    -0.10400
H7          H  0.16627348  0.33242097  0.51372468     0.09300
H8          H  0.06439870  0.35039552  0.49297597     0.06900
H9          H  0.13990428  0.39468295  0.50902848     0.06700
C10         C  0.15975426  0.46658753  0.52691016     0.03700
C11         C  0.13423587  0.45281743  0.52087303    -0.12400
C12         C  0.10095084  0.45941189  0.52001439     0.01200
C13         C  0.09325000  0.47984307  0.52451780    -0.10900
C14         C  0.11873868  0.49377029  0.52890209     0.03700
C15         C  0.15181094  0.48701517  0.53007798    -0.10400
H16         H  0.14014085  0.43701872  0.51841262     0.09300
H17         H  0.06753982  0.48486958  0.52416164     0.06900
H18         H  0.17149810  0.49771319  0.53447088     0.06700
C19         C  0.39731915  0.47054335  0.53815477     0.03700
C20         C  0.42179215  0.45593979  0.52858967    -0.12400
C21         C  0.45485236  0.46147103  0.52156565     0.01200
C22         C  0.46329515  0.48166450  0.52299800    -0.10900
C23         C  0.43893538  0.49648598  0.53222582     0.03700
C24         C  0.40612206  0.49070025  0.54016355    -0.10400
H25         H  0.41534437  0.44031932  0.52798300     0.09300
H26         H  0.48900631  0.48569474  0.51839013     0.06900
H27         H  0.38706148  0.50196248  0.54682623     0.06700
O28         O  0.99226184  0.44140160  0.47467253    -0.72300
O29         O  0.06231181  0.39781393  0.46300674    -0.73300
O30         O  0.99121925  0.39927935  0.46303605    -0.61900
O31         O  0.06309855  0.44002790  0.47414983    -0.70300
O32         O  0.06278261  0.43709502  0.55416017    -0.69900
O33         O  0.99215681  0.39570084  0.54287014    -0.61100
O34         O  0.06267161  0.39517485  0.54308532    -0.73700
O35         O  0.99204541  0.43758983  0.55443964    -0.72400
Cu36       Cu  0.02721243  0.41974902  0.46583467     1.04600
Cu37       Cu  0.02742412  0.41628984  0.55137497     1.04300
C38         C  0.48095792  0.44610461  0.51651166     0.93900
C39         C  0.07364044  0.38982564  0.50158386     0.93000
C40         C  0.48038442  0.39115323  0.50127369     0.85200
C41         C  0.07426963  0.44487911  0.51590000     0.91400
C42         C  0.39581410  0.36769419  0.49773370     0.03700
C43         C  0.40498824  0.34740387  0.49598022    -0.12400
C44         C  0.43844612  0.34138299  0.49645306     0.01200
C45         C  0.46307181  0.35590043  0.49783506    -0.10900
C46         C  0.45430233  0.37621919  0.49756422     0.03700
C47         C  0.42063943  0.38212587  0.49721693    -0.10400
H48         H  0.38592219  0.33620382  0.49642107     0.09300
H49         H  0.48903596  0.35142517  0.49928363     0.06900
H50         H  0.41389084  0.39782012  0.49902163     0.06700
C51         C  0.01897779  0.17554985  0.54859923     0.87100
C52         C  0.04620188  0.19031431  0.53499484    -0.53100
C53         C  0.03950053  0.20097043  0.49382873     0.10000
C54         C  0.00694510  0.19469003  0.46887294     0.21000
C55         C  0.98694691  0.18836262  0.54983748    -0.53900
C56         C  0.98092680  0.19879538  0.50842135     0.10100
C57         C  0.01536582  0.16203416  0.50401122    -0.53400
C58         C  0.00915332  0.17188698  0.46231775     0.10700
H59         H  0.06671429  0.19350655  0.55921367     0.15200
H60         H  0.00124842  0.20247674  0.43459096     0.01000
H61         H  0.47322506  0.19131744  0.58299895     0.15500
H62         H  0.01843386  0.14601763  0.50418994     0.15300
C63         C  0.03987594  0.66075938  0.57778225     0.87100
C64         C  0.01259396  0.64526653  0.56814523    -0.53100
C65         C  0.01799959  0.63356457  0.52759297     0.10000
C66         C  0.04947981  0.63929728  0.49979586     0.21000
C67         C  0.07229181  0.64827963  0.57834386    -0.53900
C68         C  0.07703456  0.63660225  0.53788577     0.10100
C69         C  0.04129475  0.67283383  0.53132434    -0.53400
C70         C  0.04626017  0.66177566  0.49045749     0.10700
H71         H  0.49299073  0.64259593  0.59392617     0.15200
H72         H  0.05424783  0.63054497  0.46615198     0.01000
H73         H  0.08719885  0.64643639  0.61087086     0.15500
H74         H  0.03742975  0.68881759  0.53026001     0.15300
N75         N  0.02681615  0.07461069  0.90124327    -0.26700
N76         N  0.02856076  0.09180285  0.92487133    -0.34500
C77         C  0.03105018  0.10661765  0.89284740     0.01700
C78         C  0.03092234  0.09830925  0.84676342     0.07700
C79         C  0.02817589  0.07800367  0.85351412    -0.05400
H80         H  0.03269127  0.12223384  0.90255687     0.08400
H81         H  0.02714226  0.06649450  0.82580383     0.09600
Cu82       Cu  0.02735293  0.09420258  0.99937423     0.44200
Cu83       Cu  0.02275553  0.04730813  0.93480646     0.42000
Cu84       Cu  0.01931266  0.04841129  0.06609416     0.43900
N85         N  0.02475429  0.09306234  0.07385593    -0.34100
N86         N  0.02120441  0.07649895  0.09853885    -0.28300
C87         C  0.01938359  0.08118096  0.14598814    -0.04400
C88         C  0.02213682  0.10166231  0.15118875     0.07800
C89         C  0.02556636  0.10865327  0.10473500     0.01600
H90         H  0.01640644  0.07045553  0.17445530     0.09200
H91         H  0.02795806  0.12399857  0.09395491     0.08300
N92         N  0.01882607  0.02238144  0.02448465    -0.35500
N93         N  0.01987329  0.02197325  0.97666922    -0.27700
C94         C  0.01940330  0.00289994  0.96107563    -0.02900
C95         C  0.01810418  0.99068628  0.00098506     0.05700
C96         C  0.01776043  0.00357818  0.04056219     0.03800
H97         H  0.02026201  0.99829117  0.92344040     0.08900
H98         H  0.01689737  0.99965464  0.07835599     0.07700
N99         N  0.02366188  0.75895147  0.93991113    -0.26700
N100        N  0.02632199  0.74251386  0.96555383    -0.34500
C101        C  0.02663542  0.72661955  0.93549455     0.01700
C102        C  0.02408168  0.73328522  0.88848912     0.07700
C103        C  0.02227089  0.75390568  0.89262521    -0.05400
H104        H  0.02874969  0.71132206  0.94713473     0.08400
H105        H  0.02010889  0.76448702  0.86355360     0.09600
Cu106      Cu  0.02933948  0.74220497  0.04019682     0.44200
Cu107      Cu  0.02203789  0.78735023  0.97118320     0.42000
Cu108      Cu  0.02920246  0.78966566  0.10291983     0.43900
N109        N  0.03150828  0.74511016  0.11465576    -0.34100
N110        N  0.03211957  0.76245385  0.13780946    -0.28300
C111        C  0.03414824  0.75916813  0.18565574    -0.04400
C112        C  0.03454862  0.73877684  0.19285928     0.07800
C113        C  0.03281728  0.73034159  0.14702380     0.01600
H114        H  0.03503655  0.77077926  0.21313409     0.09200
H115        H  0.03295905  0.71463895  0.13768551     0.08300
N116        N  0.02393107  0.81454371  0.05939353    -0.35500
N117        N  0.02124679  0.81373503  0.01168768    -0.27700
C118        C  0.01848540  0.83241510  0.99480139    -0.02900
C119        C  0.01949830  0.84562843  0.03370818     0.05700
C120        C  0.02290902  0.83373666  0.07404585     0.03800
H121        H  0.01620047  0.83604789  0.95691414     0.08900
H122        H  0.02484538  0.83865075  0.11137004     0.07700
C123        C  0.01842893  0.90265936  0.04958288     0.16600
C124        C  0.51907785  0.92231914  0.06716964    -0.32500
C125        C  0.01813409  0.93766874  0.03324642     0.21000
C126        C  0.01662243  0.93367652  0.98395707     0.03200
C127        C  0.01587815  0.91398972  0.96633695    -0.22200
C128        C  0.01682433  0.89861673  0.00031603     0.12300
S129        S  0.51984253  0.88198582  0.08487254    -0.05900
C130        C  0.01832502  0.86763657  0.03274508    -0.09300
C131        C  0.01666430  0.87853640  0.99041628    -0.25900
S132        S  0.01597024  0.95445968  0.94887061    -0.03100
C133        C  0.01765160  0.96868652  0.00123599    -0.16600
C134        C  0.51868602  0.95768977  0.04337371    -0.14600
H135        H  0.52038586  0.92551447  0.10563305     0.20800
H136        H  0.01474054  0.91079394  0.92786476     0.16800
H137        H  0.01571517  0.87216315  0.95427153     0.19300
H138        H  0.51992633  0.96395015  0.07960996     0.12700
C139        C  0.02597092  0.69492202  0.78372805     0.16600
C140        C  0.02791931  0.67768512  0.75441469    -0.32500
C141        C  0.02988948  0.68020811  0.70415302     0.21000
C142        C  0.02965419  0.69904817  0.68424819     0.03200
C143        C  0.52749492  0.71623065  0.71340746    -0.22200
C144        C  0.02577224  0.71372277  0.76351943     0.12300
S145        S  0.02465255  0.69515529  0.84546066    -0.05900
C146        C  0.02405050  0.72086112  0.84399681    -0.09300
C147        C  0.02452693  0.72865232  0.79781532    -0.25900
S148        S  0.53298938  0.69913921  0.62303822    -0.03100
C149        C  0.03487389  0.67336604  0.62339162    -0.16600
C150        C  0.03283578  0.66539895  0.66945479    -0.14600
H151        H  0.02833059  0.66298843  0.77012406     0.20800
H152        H  0.52760138  0.73093200  0.69771661     0.16800
H153        H  0.52457977  0.74438274  0.78965559     0.19300
H154        H  0.03394327  0.64961710  0.67707572     0.12700
C155        C  0.03878563  0.68048623  0.35938883     0.16600
C156        C  0.03206986  0.68324181  0.31002034    -0.32500
C157        C  0.03610168  0.70244599  0.29143197     0.21000
C158        C  0.04619647  0.71817631  0.32066937     0.03200
C159        C  0.05310610  0.71538592  0.36973323    -0.22200
C160        C  0.04916405  0.69624987  0.38820571     0.12000
S161        S  0.03459472  0.65860097  0.38980528    -0.05900
C162        C  0.04660717  0.67097343  0.44192581    -0.09300
C163        C  0.05397988  0.69087565  0.43517980    -0.25900
S164        S  0.04919998  0.74036048  0.29177028    -0.03100
C165        C  0.03719435  0.72834689  0.23933201    -0.16600
C166        C  0.03098397  0.70819685  0.24453158    -0.14600
H167        H  0.02390322  0.67102268  0.28721165     0.20800
H168        H  0.06099404  0.72764620  0.39264643     0.16800
H169        H  0.06206475  0.70109741  0.46327292     0.19300
H170        H  0.02308117  0.69829129  0.21565154     0.12700
C171        C  0.03264190  0.15606389  0.67942591     0.16600
C172        C  0.03510710  0.15387308  0.72976274    -0.32500
C173        C  0.03453642  0.13442718  0.74796087     0.21000
C174        C  0.03225929  0.11796686  0.71736364     0.03200
C175        C  0.53031651  0.12016233  0.66726425    -0.22200
C176        C  0.03026733  0.13953864  0.64922849     0.12300
S177        S  0.03034753  0.17825641  0.64987953    -0.05900
C178        C  0.02557733  0.16509034  0.59617200    -0.09300
C179        C  0.02644535  0.14451796  0.60183715    -0.25900
S180        S  0.53054205  0.09571746  0.74599694    -0.03100
C181        C  0.03258006  0.10860628  0.80012575    -0.16600
C182        C  0.03485473  0.12912974  0.79572141    -0.14600
H183        H  0.03646732  0.16673632  0.75369505     0.20800
H184        H  0.52800070  0.10732727  0.64340287     0.16800
H185        H  0.52334056  0.13339898  0.57374235     0.19300
H186        H  0.03603604  0.13963544  0.82569911     0.12700
C187        C  0.00293553  0.13619776  0.35313203     0.16600
C188        C  0.50053914  0.11939625  0.32287171    -0.32500
C189        C  0.01043087  0.12129132  0.27469702     0.21000
C190        C  0.02192288  0.13917891  0.25726850     0.03200
C191        C  0.02436711  0.15601195  0.28762560    -0.22200
C192        C  0.01463783  0.15408505  0.33599254     0.12300
S193        S  0.99361218  0.13651904  0.41304400    -0.05900
C194        C  0.00614993  0.16097752  0.41565505    -0.09300
C195        C  0.01625976  0.16847503  0.37169469    -0.25900
S196        S  0.03213992  0.13845786  0.19744539    -0.03100
C197        C  0.02094685  0.11376881  0.19599545    -0.16600
C198        C  0.01003444  0.10660691  0.23982644    -0.14600
H199        H  0.49165750  0.10539616  0.33643422     0.20800
H200        H  0.03363629  0.16994004  0.27421634     0.16800
H201        H  0.02580825  0.18327933  0.36657820     0.19300
H202        H  0.50171153  0.09158159  0.24574093     0.12700
C203        C  0.46493110  0.28759017  0.52462607     0.16600
C204        C  0.47777985  0.27018835  0.54544700    -0.32500
C205        C  0.46681620  0.25191680  0.52684441     0.21000
C206        C  0.44464359  0.25090516  0.48844636     0.03200
C207        C  0.43121366  0.26834499  0.46826280    -0.22200
C208        C  0.44174754  0.28666240  0.48748373     0.12300
S209        S  0.47525290  0.31119087  0.54199419    -0.05900
C210        C  0.44721748  0.31999021  0.49985735    -0.09300
C211        C  0.43131367  0.30523753  0.47331619    -0.25900
S212        S  0.43819478  0.22725679  0.46691775    -0.03100
C213        C  0.46494761  0.21869365  0.51099077    -0.16600
C214        C  0.97793153  0.23349459  0.54057712    -0.14600
H215        H  0.99589253  0.27085026  0.57445736     0.20800
H216        H  0.41381299  0.26767945  0.43834943     0.16800
H217        H  0.41279738  0.30798901  0.44557921     0.19300
H218        H  0.99700809  0.23102003  0.56768485     0.12700
C219        C  0.45122877  0.55328974  0.54627783     0.16600
C220        C  0.44979380  0.57362796  0.55906169    -0.32500
C221        C  0.47248822  0.58628569  0.53694426     0.21000
C222        C  0.49498557  0.57899384  0.50304870     0.03200
C223        C  0.49660400  0.55873269  0.49062872    -0.22200
C224        C  0.47441681  0.54607404  0.51326072     0.12300
S225        S  0.42611934  0.53539342  0.56874880    -0.05900
C226        C  0.44744104  0.51793723  0.53367932    -0.09300
C227        C  0.47257542  0.52589165  0.50616836    -0.25900
S228        S  0.02083151  0.59634606  0.48096689    -0.03100
C229        C  0.50253509  0.61376820  0.51937642    -0.16600
C230        C  0.47660141  0.60627619  0.54647005    -0.14600
H231        H  0.43211181  0.57926894  0.58549421     0.20800
H232        H  0.01473848  0.55303359  0.46490827     0.16800
H233        H  0.48830459  0.51745680  0.48139714     0.19300
H234        H  0.46244832  0.61465557  0.57323136     0.12700
C235        C  0.25176280  0.45084720  0.52021422     0.16600
C236        C  0.28396557  0.44591555  0.50398492    -0.32500
C237        C  0.31087951  0.45400066  0.52981406     0.21000
C238        C  0.30581803  0.46577292  0.57085793     0.03200
C239        C  0.27391135  0.47007440  0.58787577    -0.22200
C240        C  0.24719008  0.46274725  0.56111760     0.12300
S241        S  0.21560334  0.44543348  0.49020481    -0.05900
C242        C  0.19471598  0.46006129  0.53235003    -0.09300
C243        C  0.21468946  0.46787576  0.56843710    -0.25900
S244        S  0.34061914  0.47630507  0.59398641    -0.03100
C245        C  0.36256858  0.46518143  0.54742540    -0.16600
C246        C  0.34376608  0.45331295  0.51657395    -0.14600
H247        H  0.28781332  0.43728206  0.47105928     0.20800
H248        H  0.27001830  0.47988953  0.61882974     0.16800
H249        H  0.20604354  0.47786941  0.59697442     0.19300
H250        H  0.35319753  0.44587218  0.48432729     0.12700
C251        C  0.09399429  0.54812143  0.55831329     0.16600
C252        C  0.08087425  0.56585895  0.57812908    -0.32500
C253        C  0.09187597  0.58385865  0.55917522     0.21000
C254        C  0.11442331  0.58427594  0.52146719     0.03200
C255        C  0.12827593  0.56652232  0.50252025    -0.22200
C256        C  0.11761999  0.54849399  0.52200176     0.12300
S257        S  0.08299782  0.52474063  0.57523645    -0.05900
C258        C  0.11123991  0.51531848  0.53392753    -0.09300
C259        C  0.12788123  0.52969347  0.50823963    -0.25900
S260        S  0.12061412  0.60756574  0.49891041    -0.03100
C261        C  0.09334173  0.61682699  0.54177214    -0.16600
C262        C  0.08034148  0.60248955  0.57164908    -0.14600
H263        H  0.06234554  0.56564255  0.60639071     0.20800
H264        H  0.14590751  0.56671934  0.47306761     0.16800
H265        H  0.14644937  0.52650853  0.48085846     0.19300
H266        H  0.06098114  0.60536689  0.59804913     0.12700
C267        C  0.24970224  0.36594792  0.54294594     0.16600
C268        C  0.28180990  0.36019921  0.55653503    -0.32500
C269        C  0.30823151  0.36886676  0.53248331     0.21000
C270        C  0.30325715  0.38334911  0.49776753     0.03200
C271        C  0.27086692  0.38960036  0.48507764    -0.22200
C272        C  0.24417182  0.38023888  0.50786375     0.12300
S273        S  0.21501351  0.35457567  0.56263645    -0.05900
C274        C  0.19236313  0.36863169  0.52214078    -0.09300
C275        C  0.21097977  0.38211745  0.49629736    -0.25900
S276        S  0.33914541  0.39057556  0.47017945    -0.03100
C277        C  0.36044426  0.37325288  0.50462415    -0.16600
C278        C  0.34074880  0.36318203  0.53676653    -0.14600
H279        H  0.28599636  0.34849821  0.58261073     0.20800
H280        H  0.26664608  0.40036090  0.45676231     0.16800
H281        H  0.20115668  0.39160012  0.46806242     0.19300
H282        H  0.34963736  0.35157120  0.56066803     0.12700
C283        C  0.05980615  0.25575349  0.46910059     0.16600
C284        C  0.05751199  0.27597350  0.45704997    -0.32500
C285        C  0.07881955  0.28916500  0.48109053     0.21000
C286        C  0.10154064  0.28244444  0.51522848     0.03200
C287        C  0.10359594  0.26227268  0.52754389    -0.22200
C288        C  0.08210669  0.24912936  0.50382845     0.12300
S289        S  0.03525258  0.23758106  0.44576058    -0.05900
C290        C  0.05407466  0.22086321  0.48474758    -0.09300
C291        C  0.07919598  0.22917619  0.51269798    -0.25900
S292        S  0.12582321  0.30058597  0.53938984    -0.03100
C293        C  0.10521737  0.31758248  0.50320177    -0.16600
C294        C  0.08052768  0.30936592  0.47439056    -0.14600
H295        H  0.03968318  0.28121114  0.43048396     0.20800
H296        H  0.12101342  0.25707838  0.55472587     0.16800
H297        H  0.09355671  0.22144150  0.53997541     0.19300
H298        H  0.06527702  0.31761172  0.44897833     0.12700
C299        C  0.65719354  0.36409334  0.51177588     0.03700
C300        C  0.64759453  0.34408796  0.50985578    -0.12400
C301        C  0.61438539  0.33888865  0.50249347     0.01200
C302        C  0.59036607  0.35410294  0.49678473    -0.10900
C303        C  0.59952038  0.37420361  0.49905640     0.03700
C304        C  0.63300121  0.37917527  0.50595373    -0.10400
H305        H  0.66627353  0.33242097  0.51372441     0.09300
H306        H  0.56439870  0.35039552  0.49297606     0.06900
H307        H  0.63990429  0.39468296  0.50902852     0.06700
C308        C  0.65975429  0.46658753  0.52691022     0.03700
C309        C  0.63423589  0.45281743  0.52087310    -0.12400
C310        C  0.60095085  0.45941190  0.52001445     0.01200
C311        C  0.59325005  0.47984309  0.52451784    -0.10900
C312        C  0.61873875  0.49377030  0.52890216     0.03700
C313        C  0.65181100  0.48701517  0.53007807    -0.10400
H314        H  0.64014084  0.43701872  0.51841269     0.09300
H315        H  0.56753988  0.48486960  0.52416165     0.06900
H316        H  0.67149817  0.49771319  0.53447099     0.06700
C317        C  0.89731920  0.47054335  0.53815471     0.03700
C318        C  0.92179217  0.45593978  0.52858960    -0.12400
C319        C  0.95485239  0.46147101  0.52156558     0.01200
C320        C  0.96329520  0.48166448  0.52299795    -0.10900
C321        C  0.93893545  0.49648596  0.53222575     0.03700
C322        C  0.90612213  0.49070025  0.54016349    -0.10400
H323        H  0.91534438  0.44031932  0.52798292     0.09300
H324        H  0.98900637  0.48569470  0.51839009     0.06900
H325        H  0.88706158  0.50196248  0.54682616     0.06700
O326        O  0.49226181  0.44140163  0.47467259    -0.72300
O327        O  0.56231175  0.39781393  0.46300677    -0.73300
O328        O  0.49121918  0.39927939  0.46303611    -0.61900
O329        O  0.56309851  0.44002792  0.47414989    -0.70300
O330        O  0.56278258  0.43709503  0.55416023    -0.69900
O331        O  0.49215680  0.39570084  0.54287019    -0.61100
O332        O  0.56267159  0.39517486  0.54308535    -0.73700
O333        O  0.49204537  0.43758983  0.55443969    -0.72400
Cu334      Cu  0.52721238  0.41974904  0.46583473     1.04600
Cu335      Cu  0.52742409  0.41628985  0.55137503     1.04300
C336        C  0.98095795  0.44610459  0.51651160     0.93900
C337        C  0.57364041  0.38982564  0.50158388     0.93000
C338        C  0.98038444  0.39115322  0.50127365     0.85200
C339        C  0.57426960  0.44487912  0.51590006     0.91400
C340        C  0.89581409  0.36769421  0.49773389     0.03700
C341        C  0.90498822  0.34740389  0.49598052    -0.12400
C342        C  0.93844609  0.34138300  0.49645327     0.01200
C343        C  0.96307179  0.35590042  0.49783512    -0.10900
C344        C  0.95430233  0.37621919  0.49756422     0.03700
C345        C  0.92063942  0.38212587  0.49721700    -0.10400
H346        H  0.88592219  0.33620386  0.49642145     0.09300
H347        H  0.98903597  0.35142515  0.49928360     0.06900
H348        H  0.91389085  0.39782013  0.49902165     0.06700
C349        C  0.51897777  0.17554985  0.54859917     0.87100
C350        C  0.54620183  0.19031433  0.53499480    -0.53100
C351        C  0.53950050  0.20097042  0.49382866     0.10000
C352        C  0.50694511  0.19469000  0.46887284     0.21000
C353        C  0.48694688  0.18836259  0.54983735    -0.53900
C354        C  0.48092680  0.19879535  0.50842121     0.10100
C355        C  0.51536588  0.16203414  0.50401117    -0.53400
C356        C  0.50915339  0.17188695  0.46231768     0.10700
H357        H  0.56671420  0.19350659  0.55921365     0.15200
H358        H  0.50124845  0.20247671  0.43459084     0.01000
H359        H  0.97322508  0.19131745  0.58299911     0.15500
H360        H  0.51843399  0.14601761  0.50418987     0.15300
C361        C  0.53987587  0.66075939  0.57778225     0.87100
C362        C  0.51259392  0.64526652  0.56814527    -0.53100
C363        C  0.51799953  0.63356457  0.52759300     0.10000
C364        C  0.54947973  0.63929728  0.49979587     0.21000
C365        C  0.57229175  0.64827965  0.57834383    -0.53900
C366        C  0.57703450  0.63660226  0.53788576     0.10100
C367        C  0.54129463  0.67283383  0.53132434    -0.53400
C368        C  0.54626005  0.66177566  0.49045749     0.10700
H369        H  0.99299076  0.64259594  0.59392614     0.15200
H370        H  0.55424775  0.63054496  0.46615199     0.01000
H371        H  0.58719882  0.64643643  0.61087082     0.15500
H372        H  0.53742960  0.68881759  0.53026000     0.15300
N373        N  0.52681612  0.07461069  0.90124319    -0.26700
N374        N  0.52856080  0.09180284  0.92487125    -0.34500
C375        C  0.53105029  0.10661765  0.89284733     0.01700
C376        C  0.53092239  0.09830925  0.84676335     0.07700
C377        C  0.52817584  0.07800367  0.85351404    -0.05400
H378        H  0.53269149  0.12223383  0.90255680     0.08400
H379        H  0.52714214  0.06649451  0.82580374     0.09600
Cu380      Cu  0.52735303  0.09420257  0.99937416     0.44200
Cu381      Cu  0.52275559  0.04730809  0.93480632     0.42000
Cu382      Cu  0.51931274  0.04841130  0.06609400     0.43900
N383        N  0.52475433  0.09306233  0.07385584    -0.34100
N384        N  0.52120440  0.07649894  0.09853874    -0.28300
C385        C  0.51938356  0.08118095  0.14598803    -0.04400
C386        C  0.52213682  0.10166230  0.15118865     0.07800
C387        C  0.52556638  0.10865326  0.10473492     0.01600
H388        H  0.51640642  0.07045554  0.17445515     0.09200
H389        H  0.52795812  0.12399855  0.09395483     0.08300
N390        N  0.51882619  0.02238144  0.02448455    -0.35500
N391        N  0.51987340  0.02197323  0.97666911    -0.27700
C392        C  0.51940339  0.00289992  0.96107556    -0.02900
C393        C  0.51810427  0.99068627  0.00098501     0.05700
C394        C  0.51776055  0.00357818  0.04056212     0.03800
H395        H  0.52026207  0.99829113  0.92344030     0.08900
H396        H  0.51689749  0.99965466  0.07835592     0.07700
N397        N  0.52366176  0.75895144  0.93991115    -0.26700
N398        N  0.52632186  0.74251383  0.96555386    -0.34500
C399        C  0.52663528  0.72661952  0.93549458     0.01700
C400        C  0.52408154  0.73328518  0.88848916     0.07700
C401        C  0.52227075  0.75390565  0.89262523    -0.05400
H402        H  0.52874957  0.71132203  0.94713479     0.08400
H403        H  0.52010879  0.76448698  0.86355364     0.09600
Cu404      Cu  0.52933934  0.74220496  0.04019684     0.44200
Cu405      Cu  0.52203796  0.78735021  0.97118319     0.42000
Cu406      Cu  0.52920251  0.78966566  0.10291983     0.43900
N407        N  0.53150815  0.74511016  0.11465578    -0.34100
N408        N  0.53211947  0.76245385  0.13780948    -0.28300
C409        C  0.53414818  0.75916813  0.18565576    -0.04400
C410        C  0.53454856  0.73877684  0.19285930     0.07800
C411        C  0.53281719  0.73034159  0.14702382     0.01600
H412        H  0.53503652  0.77077926  0.21313410     0.09200
H413        H  0.53295897  0.71463895  0.13768553     0.08300
N414        N  0.52393109  0.81454371  0.05939353    -0.35500
N415        N  0.52124683  0.81373503  0.01168767    -0.27700
C416        C  0.51848545  0.83241511  0.99480138    -0.02900
C417        C  0.51949834  0.84562843  0.03370818     0.05700
C418        C  0.52290902  0.83373666  0.07404586     0.03800
H419        H  0.51620057  0.83604789  0.95691413     0.08900
H420        H  0.52484536  0.83865075  0.11137004     0.07700
C421        C  0.51842897  0.90265937  0.04958289     0.16600
C422        C  0.01907788  0.92231914  0.06716964    -0.32500
C423        C  0.51813406  0.93766875  0.03324641     0.21000
C424        C  0.51662247  0.93367652  0.98395706     0.03200
C425        C  0.51587824  0.91398972  0.96633695    -0.22200
C426        C  0.51682439  0.89861673  0.00031603     0.12300
S427        S  0.01984248  0.88198581  0.08487253    -0.05900
C428        C  0.51832509  0.86763658  0.03274509    -0.09300
C429        C  0.51666439  0.87853641  0.99041629    -0.25900
S430        S  0.51597035  0.95445968  0.94887058    -0.03100
C431        C  0.51765163  0.96868652  0.00123596    -0.16600
C432        C  0.01868607  0.95768977  0.04337373    -0.14600
H433        H  0.02038593  0.92551446  0.10563306     0.20800
H434        H  0.51474070  0.91079393  0.92786476     0.16800
H435        H  0.51571529  0.87216316  0.95427155     0.19300
H436        H  0.01992644  0.96395014  0.07960998     0.12700
C437        C  0.52597097  0.69492201  0.78372808     0.16600
C438        C  0.52791941  0.67768511  0.75441471    -0.32500
C439        C  0.52988956  0.68020811  0.70415304     0.21000
C440        C  0.52965421  0.69904818  0.68424821     0.03200
C441        C  0.02749489  0.71623065  0.71340744    -0.22200
C442        C  0.52577230  0.71372276  0.76351946     0.12300
S443        S  0.52465245  0.69515526  0.84546068    -0.05900
C444        C  0.52405043  0.72086109  0.84399684    -0.09300
C445        C  0.52452695  0.72865230  0.79781537    -0.25900
S446        S  0.03298951  0.69913921  0.62303822    -0.03100
C447        C  0.53487384  0.67336605  0.62339163    -0.16600
C448        C  0.53283582  0.66539896  0.66945481    -0.14600
H449        H  0.52833069  0.66298842  0.77012408     0.20800
H450        H  0.02760142  0.73093199  0.69771660     0.16800
H451        H  0.02457972  0.74438275  0.78965552     0.19300
H452        H  0.53394335  0.64961710  0.67707574     0.12700
C453        C  0.53878550  0.68048623  0.35938883     0.16600
C454        C  0.53206975  0.68324181  0.31002034    -0.32500
C455        C  0.53610160  0.70244599  0.29143198     0.21000
C456        C  0.54619638  0.71817630  0.32066939     0.03200
C457        C  0.55310599  0.71538592  0.36973326    -0.22200
C458        C  0.54916392  0.69624987  0.38820573     0.12000
S459        S  0.53459457  0.65860097  0.38980529    -0.05900
C460        C  0.54660703  0.67097342  0.44192582    -0.09300
C461        C  0.55397973  0.69087564  0.43517982    -0.25900
S462        S  0.54919990  0.74036048  0.29177032    -0.03100
C463        C  0.53719431  0.72834690  0.23933203    -0.16600
C464        C  0.53098392  0.70819685  0.24453158    -0.14600
H465        H  0.52390313  0.67102269  0.28721164     0.20800
H466        H  0.56099392  0.72764620  0.39264649     0.16800
H467        H  0.56206461  0.70109740  0.46327294     0.19300
H468        H  0.52308114  0.69829130  0.21565154     0.12700
C469        C  0.53264181  0.15606391  0.67942588     0.16600
C470        C  0.53510708  0.15387309  0.72976270    -0.32500
C471        C  0.53453645  0.13442718  0.74796082     0.21000
C472        C  0.53225929  0.11796687  0.71736359     0.03200
C473        C  0.03031655  0.12016231  0.66726430    -0.22200
C474        C  0.53026726  0.13953867  0.64922845     0.12300
S475        S  0.53034742  0.17825643  0.64987951    -0.05900
C476        C  0.52557729  0.16509036  0.59617196    -0.09300
C477        C  0.52644532  0.14451798  0.60183712    -0.25900
S478        S  0.03054196  0.09571745  0.74599700    -0.03100
C479        C  0.53258016  0.10860628  0.80012569    -0.16600
C480        C  0.53485481  0.12912974  0.79572135    -0.14600
H481        H  0.53646731  0.16673630  0.75369498     0.20800
H482        H  0.02800074  0.10732724  0.64340292     0.16800
H483        H  0.02334053  0.13339898  0.57374242     0.19300
H484        H  0.53603611  0.13963544  0.82569904     0.12700
C485        C  0.50293561  0.13619775  0.35313191     0.16600
C486        C  0.00053908  0.11939625  0.32287183    -0.32500
C487        C  0.51043092  0.12129132  0.27469690     0.21000
C488        C  0.52192295  0.13917891  0.25726840     0.03200
C489        C  0.52436720  0.15601195  0.28762549    -0.22200
C490        C  0.51463790  0.15408505  0.33599243     0.12300
S491        S  0.49361229  0.13651901  0.41304388    -0.05900
C492        C  0.50615004  0.16097749  0.41565497    -0.09300
C493        C  0.51625985  0.16847502  0.37169461    -0.25900
S494        S  0.53213996  0.13845786  0.19744528    -0.03100
C495        C  0.52094689  0.11376881  0.19599534    -0.16600
C496        C  0.51003448  0.10660691  0.23982632    -0.14600
H497        H  0.99165745  0.10539618  0.33643433     0.20800
H498        H  0.53363640  0.16994004  0.27421624     0.16800
H499        H  0.52580834  0.18327932  0.36657816     0.19300
H500        H  0.00171150  0.09158159  0.24574104     0.12700
C501        C  0.96493115  0.28759018  0.52462609     0.16600
C502        C  0.97777992  0.27018837  0.54544699    -0.32500
C503        C  0.96681620  0.25191682  0.52684450     0.21000
C504        C  0.94464352  0.25090516  0.48844653     0.03200
C505        C  0.93121354  0.26834499  0.46826300    -0.22200
C506        C  0.94174748  0.28666241  0.48748389     0.12300
S507        S  0.97525298  0.31119087  0.54199418    -0.05900
C508        C  0.94721744  0.31999021  0.49985751    -0.09300
C509        C  0.93131356  0.30523753  0.47331642    -0.25900
S510        S  0.93819462  0.22725679  0.46691804    -0.03100
C511        C  0.96494758  0.21869367  0.51099093    -0.16600
C512        C  0.47793152  0.23349457  0.54057701    -0.14600
H513        H  0.49589240  0.27085025  0.57445744     0.20800
H514        H  0.91381279  0.26767946  0.43834970     0.16800
H515        H  0.91279720  0.30798902  0.44557954     0.19300
H516        H  0.49700803  0.23102000  0.56768477     0.12700
C517        C  0.95122888  0.55328972  0.54627784     0.16600
C518        C  0.94979390  0.57362794  0.55906171    -0.32500
C519        C  0.97248832  0.58628567  0.53694428     0.21000
C520        C  0.99498566  0.57899382  0.50304871     0.03200
C521        C  0.99660410  0.55873267  0.49062872    -0.22200
C522        C  0.97441692  0.54607402  0.51326071     0.12300
S523        S  0.92611946  0.53539340  0.56874882    -0.05900
C524        C  0.94744114  0.51793721  0.53367930    -0.09300
C525        C  0.97257552  0.52589162  0.50616834    -0.25900
S526        S  0.52083141  0.59634608  0.48096687    -0.03100
C527        C  0.00253517  0.61376819  0.51937643    -0.16600
C528        C  0.97660150  0.60627617  0.54647007    -0.14600
H529        H  0.93211189  0.57926892  0.58549426     0.20800
H530        H  0.51473841  0.55303361  0.46490828     0.16800
H531        H  0.98830466  0.51745677  0.48139711     0.19300
H532        H  0.96244840  0.61465555  0.57323137     0.12700
C533        C  0.75176285  0.45084720  0.52021422     0.16600
C534        C  0.78396562  0.44591555  0.50398493    -0.32500
C535        C  0.81087956  0.45400068  0.52981404     0.21000
C536        C  0.80581807  0.46577295  0.57085788     0.03200
C537        C  0.77391140  0.47007442  0.58787574    -0.22200
C538        C  0.74719014  0.46274726  0.56111760     0.12300
S539        S  0.71560338  0.44543349  0.49020483    -0.05900
C540        C  0.69471602  0.46006128  0.53235008    -0.09300
C541        C  0.71468952  0.46787576  0.56843712    -0.25900
S542        S  0.84061916  0.47630514  0.59398628    -0.03100
C543        C  0.86256862  0.46518146  0.54742534    -0.16600
C544        C  0.84376614  0.45331295  0.51657396    -0.14600
H545        H  0.78781338  0.43728206  0.47105932     0.20800
H546        H  0.77001834  0.47988955  0.61882969     0.16800
H547        H  0.70604360  0.47786941  0.59697443     0.19300
H548        H  0.85319759  0.44587216  0.48432735     0.12700
C549        C  0.59399436  0.54812145  0.55831336     0.16600
C550        C  0.58087432  0.56585896  0.57812917    -0.32500
C551        C  0.59187600  0.58385867  0.55917525     0.21000
C552        C  0.61442328  0.58427595  0.52146712     0.03200
C553        C  0.62827589  0.56652233  0.50252015    -0.22200
C554        C  0.61762003  0.54849400  0.52200177     0.12300
S555        S  0.58299792  0.52474064  0.57523655    -0.05900
C556        C  0.61123999  0.51531849  0.53392761    -0.09300
C557        C  0.62788129  0.52969349  0.50823968    -0.25900
S558        S  0.62061404  0.60756575  0.49891029    -0.03100
C559        C  0.59334170  0.61682701  0.54177211    -0.16600
C560        C  0.58034153  0.60248957  0.57164913    -0.14600
H561        H  0.56234564  0.56564256  0.60639088     0.20800
H562        H  0.64590743  0.56671935  0.47306741     0.16800
H563        H  0.64644942  0.52650854  0.48085849     0.19300
H564        H  0.56098125  0.60536691  0.59804927     0.12700
C565        C  0.74970223  0.36594797  0.54294596     0.16600
C566        C  0.78180988  0.36019926  0.55653508    -0.32500
C567        C  0.80823149  0.36886680  0.53248337     0.21000
C568        C  0.80325715  0.38334914  0.49776756     0.03200
C569        C  0.77086694  0.38960038  0.48507761    -0.22200
C570        C  0.74417182  0.38023891  0.50786374     0.12300
S571        S  0.71501351  0.35457570  0.56263644    -0.05900
C572        C  0.69236314  0.36863170  0.52214071    -0.09300
C573        C  0.71097978  0.38211746  0.49629730    -0.25900
S574        S  0.83914543  0.39057556  0.47017950    -0.03100
C575        C  0.86044425  0.37325290  0.50462427    -0.16600
C576        C  0.84074877  0.36318207  0.53676664    -0.14600
H577        H  0.78599632  0.34849829  0.58261079     0.20800
H578        H  0.76664611  0.40036090  0.45676223     0.16800
H579        H  0.70115669  0.39160012  0.46806230     0.19300
H580        H  0.84963732  0.35157125  0.56066816     0.12700
C581        C  0.55980607  0.25575350  0.46910052     0.16600
C582        C  0.55751190  0.27597352  0.45704994    -0.32500
C583        C  0.57881948  0.28916501  0.48109051     0.21000
C584        C  0.60154065  0.28244443  0.51522833     0.03200
C585        C  0.60359596  0.26227267  0.52754371    -0.22200
C586        C  0.58210665  0.24912936  0.50382833     0.12300
S587        S  0.53525244  0.23758108  0.44576059    -0.05900
C588        C  0.55407459  0.22086322  0.48474751    -0.09300
C589        C  0.57919596  0.22917618  0.51269785    -0.25900
S590        S  0.62582329  0.30058594  0.53938961    -0.03100
C591        C  0.60521739  0.31758248  0.50320168    -0.16600
C592        C  0.58052761  0.30936593  0.47439060    -0.14600
H593        H  0.53968307  0.28121117  0.43048395     0.20800
H594        H  0.62101349  0.25707834  0.55472566     0.16800
H595        H  0.59355675  0.22144147  0.53997526     0.19300
H596        H  0.56527690  0.31761175  0.44897848     0.12700
loop_ 
_geom_bond_atom_site_label_1 
_geom_bond_atom_site_label_2 
_geom_bond_distance 
_geom_bond_site_symmetry_2 
_ccdc_geom_bond_type 
C1            C2   1.404       .  A
C1            C6   1.404       .  A
C1          C274   1.481       .  S
C2            C3   1.402       .  A
C2            H7   1.083       .  S
C3            C4   1.405       .  A
C3          C293   1.483       .  S
C4            C5   1.405       .  A
C4            H8   1.084       .  S
C5            C6   1.407       .  A
C5           C39   1.468       .  S
C6            H9   1.084       .  S
C10          C11   1.402       .  A
C10          C15   1.404       .  A
C10         C242   1.476       .  S
C11          C12   1.405       .  A
C11          H16   1.084       .  S
C12          C13   1.405       .  A
C12          C41   1.467       .  S
C13          C14   1.404       .  A
C13          H17   1.084       .  S
C14          C15   1.401       .  A
C14         C258   1.477       .  S
C15          H18   1.084       .  S
C19          C20   1.402       .  A
C19          C24   1.405       .  A
C19         C245   1.476       .  S
C20          C21   1.404       .  A
C20          H25   1.084       .  S
C21          C22   1.403       .  A
C21          C38   1.467       .  S
C22          C23   1.407       .  A
C22          H26   1.083       .  S
C23          C24   1.403       .  A
C23         C226   1.486       .  S
C24          H27   1.083       .  S
O28         Cu36   2.020   1_655  S
O28         C336   1.278       .  A
O29         Cu36   2.025       .  S
O29          C39   1.279       .  A
O30         Cu36   2.015   1_655  S
O30         C338   1.277       .  A
O31         Cu36   2.013       .  S
O31          C41   1.277       .  A
O32         Cu37   2.012       .  S
O32          C41   1.277       .  A
O33         Cu37   2.010   1_655  S
O33         C338   1.277       .  A
O34         Cu37   2.001       .  S
O34          C39   1.276       .  A
O35         Cu37   2.003   1_655  S
O35         C336   1.276       .  A
Cu36        Cu37   2.378       .  S
C38         O326   1.278       .  A
C38         O333   1.276       .  A
C40          C46   1.467       .  S
C40         O328   1.277       .  A
C40         O331   1.277       .  A
C42          C43   1.405       .  A
C42          C47   1.404       .  A
C42         C277   1.480       .  S
C43          C44   1.401       .  A
C43          H48   1.084       .  S
C44          C45   1.402       .  A
C44         C210   1.477       .  S
C45          C46   1.403       .  A
C45          H49   1.084       .  S
C46          C47   1.407       .  A
C47          H50   1.084       .  S
C51          C52   1.541       .  S
C51          C57   1.529       .  S
C51          C55   1.539   1_455  S
C51         C178   1.519       .  S
C52          H59   1.084       .  S
C52          C53   1.375       .  D
C53          C54   1.542       .  S
C53         C290   1.492       .  S
C54          C58   1.540       .  S
C54          C56   1.537   1_455  S
C54          H60   1.109       .  S
C55         H359   1.087       .  S
C55          C56   1.368       .  D
C56         C511   1.474       .  S
C57          H62   1.080       .  S
C57          C58   1.356       .  D
C58         C194   1.480       .  S
H61         C353   1.087       .  S
C63          C64   1.546       .  S
C63          C69   1.529       .  S
C63          C67   1.540       .  S
C63         C149   1.521       .  S
C64         H369   1.085   1_455  S
C64          C65   1.376       .  D
C65          C66   1.542       .  S
C65         C527   1.491       .  S
C66          C70   1.537       .  S
C66          C68   1.537       .  S
C66          H72   1.109       .  S
C67          H73   1.086       .  S
C67          C68   1.369       .  D
C68         C261   1.476       .  S
C69          H74   1.082       .  S
C69          C70   1.357       .  D
C70         C162   1.484       .  S
H71         C362   1.085       .  S
N75          N76   1.321       .  A
N75          C79   1.343       .  A
N75         Cu83   2.074       .  S
N76          C77   1.345       .  A
N76         Cu82   2.064       .  S
C77          C78   1.384       .  A
C77          H80   1.082       .  S
C78          C79   1.384       .  A
C78         C181   1.473       .  S
C79          H81   1.082       .  S
Cu82         N85   2.064   1_556  S
Cu83         N93   2.074       .  S
Cu84         N86   2.079       .  S
Cu84         N92   2.079       .  S
N85          N86   1.322       .  A
N85          C89   1.342       .  A
N86          C87   1.347       .  A
C87          C88   1.387       .  A
C87          H90   1.082       .  S
C88          C89   1.381       .  A
C88         C197   1.473       .  S
C89          H91   1.082       .  S
N92          N93   1.322   1_554  A
N92          C96   1.345       .  A
N93          C94   1.346       .  A
C94          C95   1.384   1_546  A
C94          H97   1.082   1_545  S
C95          C96   1.386   1_565  A
C95         C133   1.477       .  S
C96          H98   1.081   1_545  S
N99         N100   1.322       .  A
N99         C103   1.347       .  A
N99        Cu107   2.083       .  S
N100        C101   1.343       .  A
N100       Cu106   2.066   1_556  S
C101        C102   1.382       .  A
C101        H104   1.082       .  S
C102        C103   1.388       .  A
C102        C146   1.477       .  S
C103        H105   1.082       .  S
Cu106       N109   2.066       .  S
Cu107       N117   2.083   1_556  S
Cu108       N110   2.078       .  S
Cu108       N116   2.078       .  S
N109        N110   1.322       .  A
N109        C113   1.344       .  A
N110        C111   1.345       .  A
C111        C112   1.385       .  A
C111        H114   1.082       .  S
C112        C113   1.383       .  A
C112        C165   1.473       .  S
C113        H115   1.082       .  S
N116        N117   1.323       .  A
N116        C120   1.345       .  A
N117        C118   1.346   1_554  A
C118        C119   1.386   1_556  A
C118        H121   1.081       .  S
C119        C120   1.385       .  A
C119        C130   1.478       .  S
C120        H122   1.082       .  S
C123        C128   1.386       .  A
C123        C422   1.401       .  A
C123        S427   1.706       .  A
C124        C421   1.401       .  A
C124        C423   1.402       .  A
C124        H135   1.083       .  S
C125        C126   1.386   1_554  A
C125        C422   1.402       .  A
C125        C432   1.370       .  A
C126        C127   1.403       .  A
C126        S132   1.709       .  A
C127        C128   1.404   1_556  A
C127        H136   1.083       .  S
C128        C131   1.372   1_554  A
S129        C421   1.706       .  A
S129        C428   1.724       .  A
C130        C131   1.389   1_554  A
C130        S427   1.724       .  A
C131        H137   1.082       .  S
S132        C133   1.725   1_556  A
C133        C432   1.387       .  A
C134        C423   1.370       .  A
C134        C431   1.387       .  A
C134        H138   1.082       .  S
C139        C144   1.386       .  A
C139        C140   1.405       .  A
C139        S145   1.707       .  A
C140        C141   1.404       .  A
C140        H151   1.083       .  S
C141        C150   1.376       .  A
C141        C142   1.385       .  A
C142        C441   1.400       .  A
C142        S446   1.698       .  A
C143        C440   1.400       .  A
C143        C442   1.399       .  A
C143        H152   1.083       .  S
C144        C147   1.371       .  A
C144        C441   1.399       .  A
S145        C146   1.726       .  A
C146        C147   1.386       .  A
C147        H451   1.082       .  S
S148        C440   1.698       .  A
S148        C447   1.730       .  A
C149        C150   1.390       .  A
C149        S446   1.730       .  A
C150        H154   1.083       .  S
H153        C445   1.082       .  S
C155        C160   1.385       .  A
C155        C156   1.404       .  A
C155        S161   1.713       .  A
C156        C157   1.406       .  A
C156        H167   1.083       .  S
C157        C166   1.371       .  A
C157        C158   1.387       .  A
C158        C159   1.398       .  A
C158        S164   1.705       .  A
C159        C160   1.400       .  A
C159        H168   1.083       .  S
C160        C163   1.364       .  A
S161        C162   1.725       .  A
C162        C163   1.388       .  A
C163        H169   1.082       .  S
S164        C165   1.721       .  A
C165        C166   1.389       .  A
C166        H170   1.082       .  S
C171        C176   1.384       .  A
C171        C172   1.404       .  A
C171        S177   1.709       .  A
C172        C173   1.405       .  A
C172        H183   1.083       .  S
C173        C182   1.371       .  A
C173        C174   1.387       .  A
C174        C473   1.396       .  A
C174        S478   1.702       .  A
C175        C472   1.396       .  A
C175        C474   1.399       .  A
C175        H184   1.083       .  S
C176        C179   1.363       .  A
C176        C473   1.399       .  A
S177        C178   1.729       .  A
C178        C179   1.391       .  A
C179        H483   1.078       .  S
S180        C472   1.702       .  A
S180        C479   1.721       .  A
C181        C182   1.389       .  A
C181        S478   1.721       .  A
C182        H186   1.082       .  S
H185        C477   1.078       .  S
C187        C192   1.387       .  A
C187        C486   1.400       .  A
C187        S193   1.699   1_455  A
C188        C485   1.400       .  A
C188        C487   1.399       .  A
C188        H199   1.083       .  S
C189        C198   1.370       .  A
C189        C190   1.387       .  A
C189        C486   1.399       .  A
C190        C191   1.403       .  A
C190        S196   1.705       .  A
C191        C192   1.403       .  A
C191        H200   1.083       .  S
C192        C195   1.374       .  A
S193        C194   1.726   1_655  A
C194        C195   1.386       .  A
C195        H201   1.083       .  S
S196        C197   1.725       .  A
C197        C198   1.385       .  A
C198        H500   1.083       .  S
H202        C496   1.083       .  S
C203        C208   1.387       .  A
C203        C204   1.399       .  A
C203        S209   1.707       .  A
C204        C205   1.401       .  A
C204        H513   1.083       .  S
C205        C206   1.386       .  A
C205        C512   1.366       .  A
C206        C207   1.403       .  A
C206        S212   1.711       .  A
C207        C208   1.404       .  A
C207        H216   1.083       .  S
C208        C211   1.370       .  A
S209        C210   1.722       .  A
C210        C211   1.388       .  A
C211        H217   1.083       .  S
S212        C213   1.721       .  A
C213        C512   1.386       .  A
C213        C354   1.474       .  S
C214        C503   1.366       .  A
C214        C511   1.386       .  A
C214        H218   1.084       .  S
H215        C502   1.083       .  S
C219        C224   1.386       .  A
C219        C220   1.406       .  A
C219        S225   1.708       .  A
C220        C221   1.406       .  A
C220        H231   1.083       .  S
C221        C230   1.377       .  A
C221        C222   1.385       .  A
C222        C223   1.399       .  A
C222        S526   1.696       .  A
C223        C224   1.399       .  A
C223        H530   1.083       .  S
C224        C227   1.369       .  A
S225        C226   1.730       .  A
C226        C227   1.387       .  A
C227        H233   1.083       .  S
S228        C520   1.696   1_455  A
S228        C527   1.727       .  A
C229        C230   1.392       .  A
C229        C363   1.491       .  S
C229        S526   1.727       .  A
C230        H234   1.082       .  S
H232        C521   1.083   1_455  S
C235        C240   1.387       .  A
C235        C236   1.407       .  A
C235        S241   1.716       .  A
C236        C237   1.408       .  A
C236        H247   1.083       .  S
C237        C246   1.376       .  A
C237        C238   1.388       .  A
C238        C239   1.395       .  A
C238        S244   1.700       .  A
C239        C240   1.396       .  A
C239        H248   1.083       .  S
C240        C243   1.364       .  A
S241        C242   1.726       .  A
C242        C243   1.383       .  A
C243        H249   1.083       .  S
S244        C245   1.720       .  A
C245        C246   1.390       .  A
C246        H250   1.083       .  S
C251        C256   1.387       .  A
C251        C252   1.400       .  A
C251        S257   1.709       .  A
C252        C253   1.402       .  A
C252        H263   1.083       .  S
C253        C262   1.367       .  A
C253        C254   1.386       .  A
C254        C255   1.403       .  A
C254        S260   1.713       .  A
C255        C256   1.405       .  A
C255        H264   1.083       .  S
C256        C259   1.371       .  A
S257        C258   1.722       .  A
C258        C259   1.388       .  A
C259        H265   1.083       .  S
S260        C261   1.722       .  A
C261        C262   1.387       .  A
C262        H266   1.083       .  S
C267        C272   1.387       .  A
C267        C268   1.395       .  A
C267        S273   1.698       .  A
C268        C269   1.396       .  A
C268        H279   1.083       .  S
C269        C278   1.364       .  A
C269        C270   1.386       .  A
C270        C271   1.409       .  A
C270        S276   1.717       .  A
C271        C272   1.409       .  A
C271        H280   1.083       .  S
C272        C275   1.378       .  A
S273        C274   1.722       .  A
C274        C275   1.391       .  A
C275        H281   1.083       .  S
S276        C277   1.727       .  A
C277        C278   1.384       .  A
C278        H282   1.084       .  S
C283        C288   1.385       .  A
C283        C284   1.403       .  A
C283        S289   1.702       .  A
C284        C285   1.403       .  A
C284        H295   1.083       .  S
C285        C294   1.374       .  A
C285        C286   1.386       .  A
C286        C287   1.401       .  A
C286        S292   1.703       .  A
C287        C288   1.401       .  A
C287        H296   1.083       .  S
C288        C291   1.372       .  A
S289        C290   1.730       .  A
C290        C291   1.391       .  A
C291        H297   1.081       .  S
S292        C293   1.727       .  A
C293        C294   1.389       .  A
C294        H298   1.083       .  S
C299        C300   1.404       .  A
C299        C304   1.404       .  A
C299        C572   1.481       .  S
C300        C301   1.402       .  A
C300        H305   1.083       .  S
C301        C302   1.405       .  A
C301        C591   1.483       .  S
C302        C303   1.405       .  A
C302        H306   1.084       .  S
C303        C304   1.407       .  A
C303        C337   1.468       .  S
C304        H307   1.084       .  S
C308        C309   1.402       .  A
C308        C313   1.404       .  A
C308        C540   1.476       .  S
C309        C310   1.405       .  A
C309        H314   1.084       .  S
C310        C311   1.405       .  A
C310        C339   1.467       .  S
C311        C312   1.404       .  A
C311        H315   1.084       .  S
C312        C313   1.401       .  A
C312        C556   1.477       .  S
C313        H316   1.084       .  S
C317        C318   1.402       .  A
C317        C322   1.405       .  A
C317        C543   1.476       .  S
C318        C319   1.404       .  A
C318        H323   1.084       .  S
C319        C320   1.403       .  A
C319        C336   1.467       .  S
C320        C321   1.407       .  A
C320        H324   1.083       .  S
C321        C322   1.403       .  A
C321        C524   1.486       .  S
C322        H325   1.083       .  S
O326       Cu334   2.020       .  S
O327       Cu334   2.025       .  S
O327        C337   1.279       .  A
O328       Cu334   2.015       .  S
O329       Cu334   2.013       .  S
O329        C339   1.277       .  A
O330       Cu335   2.012       .  S
O330        C339   1.277       .  A
O331       Cu335   2.010       .  S
O332       Cu335   2.001       .  S
O332        C337   1.276       .  A
O333       Cu335   2.003       .  S
Cu334      Cu335   2.378       .  S
C338        C344   1.467       .  S
C340        C341   1.405       .  A
C340        C345   1.404       .  A
C340        C575   1.480       .  S
C341        C342   1.401       .  A
C341        H346   1.084       .  S
C342        C343   1.402       .  A
C342        C508   1.477       .  S
C343        C344   1.403       .  A
C343        H347   1.084       .  S
C344        C345   1.407       .  A
C345        H348   1.084       .  S
C349        C350   1.541       .  S
C349        C355   1.529       .  S
C349        C353   1.539       .  S
C349        C476   1.519       .  S
C350        H357   1.084       .  S
C350        C351   1.375       .  D
C351        C352   1.542       .  S
C351        C588   1.492       .  S
C352        C356   1.540       .  S
C352        C354   1.537       .  S
C352        H358   1.109       .  S
C353        C354   1.368       .  D
C355        H360   1.080       .  S
C355        C356   1.356       .  D
C356        C492   1.480       .  S
C361        C362   1.546       .  S
C361        C367   1.529       .  S
C361        C365   1.540       .  S
C361        C447   1.521       .  S
C362        C363   1.376       .  D
C363        C364   1.542       .  S
C364        C368   1.537       .  S
C364        C366   1.537       .  S
C364        H370   1.109       .  S
C365        H371   1.086       .  S
C365        C366   1.369       .  D
C366        C559   1.476       .  S
C367        H372   1.082       .  S
C367        C368   1.357       .  D
C368        C460   1.484       .  S
N373        N374   1.321       .  A
N373        C377   1.343       .  A
N373       Cu381   2.074       .  S
N374        C375   1.345       .  A
N374       Cu380   2.064       .  S
C375        C376   1.384       .  A
C375        H378   1.082       .  S
C376        C377   1.384       .  A
C376        C479   1.473       .  S
C377        H379   1.082       .  S
Cu380       N383   2.064   1_556  S
Cu381       N391   2.074       .  S
Cu382       N384   2.079       .  S
Cu382       N390   2.079       .  S
N383        N384   1.322       .  A
N383        C387   1.342       .  A
N384        C385   1.347       .  A
C385        C386   1.387       .  A
C385        H388   1.082       .  S
C386        C387   1.381       .  A
C386        C495   1.473       .  S
C387        H389   1.082       .  S
N390        N391   1.322   1_554  A
N390        C394   1.345       .  A
N391        C392   1.346       .  A
C392        C393   1.384   1_546  A
C392        H395   1.082   1_545  S
C393        C394   1.386   1_565  A
C393        C431   1.477       .  S
C394        H396   1.081   1_545  S
N397        N398   1.322       .  A
N397        C401   1.347       .  A
N397       Cu405   2.083       .  S
N398        C399   1.343       .  A
N398       Cu404   2.066   1_556  S
C399        C400   1.382       .  A
C399        H402   1.082       .  S
C400        C401   1.388       .  A
C400        C444   1.477       .  S
C401        H403   1.082       .  S
Cu404       N407   2.066       .  S
Cu405       N415   2.083   1_556  S
Cu406       N408   2.078       .  S
Cu406       N414   2.078       .  S
N407        N408   1.322       .  A
N407        C411   1.344       .  A
N408        C409   1.345       .  A
C409        C410   1.385       .  A
C409        H412   1.082       .  S
C410        C411   1.383       .  A
C410        C463   1.473       .  S
C411        H413   1.082       .  S
N414        N415   1.323       .  A
N414        C418   1.345       .  A
N415        C416   1.346   1_554  A
C416        C417   1.386   1_556  A
C416        H419   1.081       .  S
C417        C418   1.385       .  A
C417        C428   1.478       .  S
C418        H420   1.082       .  S
C421        C426   1.386       .  A
C422        H433   1.083       .  S
C423        C424   1.386   1_554  A
C424        C425   1.403       .  A
C424        S430   1.709       .  A
C425        C426   1.404   1_556  A
C425        H434   1.083       .  S
C426        C429   1.372   1_554  A
C428        C429   1.389   1_554  A
C429        H435   1.082       .  S
S430        C431   1.725   1_556  A
C432        H436   1.082       .  S
C437        C442   1.386       .  A
C437        C438   1.405       .  A
C437        S443   1.707       .  A
C438        C439   1.404       .  A
C438        H449   1.083       .  S
C439        C448   1.376       .  A
C439        C440   1.385       .  A
C441        H450   1.083       .  S
C442        C445   1.371       .  A
S443        C444   1.726       .  A
C444        C445   1.386       .  A
C447        C448   1.390       .  A
C448        H452   1.083       .  S
C453        C458   1.385       .  A
C453        C454   1.404       .  A
C453        S459   1.713       .  A
C454        C455   1.406       .  A
C454        H465   1.083       .  S
C455        C464   1.371       .  A
C455        C456   1.387       .  A
C456        C457   1.398       .  A
C456        S462   1.705       .  A
C457        C458   1.400       .  A
C457        H466   1.083       .  S
C458        C461   1.364       .  A
S459        C460   1.725       .  A
C460        C461   1.388       .  A
C461        H467   1.082       .  S
S462        C463   1.721       .  A
C463        C464   1.389       .  A
C464        H468   1.082       .  S
C469        C474   1.384       .  A
C469        C470   1.404       .  A
C469        S475   1.709       .  A
C470        C471   1.405       .  A
C470        H481   1.083       .  S
C471        C480   1.371       .  A
C471        C472   1.387       .  A
C473        H482   1.083       .  S
C474        C477   1.363       .  A
S475        C476   1.729       .  A
C476        C477   1.391       .  A
C479        C480   1.389       .  A
C480        H484   1.082       .  S
C485        C490   1.387       .  A
C485        S491   1.699       .  A
C486        H497   1.083   1_455  S
C487        C496   1.370       .  A
C487        C488   1.387       .  A
C488        C489   1.403       .  A
C488        S494   1.705       .  A
C489        C490   1.403       .  A
C489        H498   1.083       .  S
C490        C493   1.374       .  A
S491        C492   1.726       .  A
C492        C493   1.386       .  A
C493        H499   1.083       .  S
S494        C495   1.725       .  A
C495        C496   1.385       .  A
C501        C506   1.387       .  A
C501        C502   1.399       .  A
C501        S507   1.707       .  A
C502        C503   1.401       .  A
C503        C504   1.386       .  A
C504        C505   1.403       .  A
C504        S510   1.711       .  A
C505        C506   1.404       .  A
C505        H514   1.083       .  S
C506        C509   1.370       .  A
S507        C508   1.722       .  A
C508        C509   1.388       .  A
C509        H515   1.083       .  S
S510        C511   1.721       .  A
C512        H516   1.084       .  S
C517        C522   1.386       .  A
C517        C518   1.406       .  A
C517        S523   1.708       .  A
C518        C519   1.406       .  A
C518        H529   1.083       .  S
C519        C528   1.377       .  A
C519        C520   1.385       .  A
C520        C521   1.399       .  A
C521        C522   1.399       .  A
C522        C525   1.369       .  A
S523        C524   1.730       .  A
C524        C525   1.387       .  A
C525        H531   1.083       .  S
C527        C528   1.392   1_455  A
C528        H532   1.082       .  S
C533        C538   1.387       .  A
C533        C534   1.407       .  A
C533        S539   1.716       .  A
C534        C535   1.408       .  A
C534        H545   1.083       .  S
C535        C544   1.376       .  A
C535        C536   1.388       .  A
C536        C537   1.395       .  A
C536        S542   1.700       .  A
C537        C538   1.396       .  A
C537        H546   1.083       .  S
C538        C541   1.364       .  A
S539        C540   1.726       .  A
C540        C541   1.383       .  A
C541        H547   1.083       .  S
S542        C543   1.720       .  A
C543        C544   1.390       .  A
C544        H548   1.083       .  S
C549        C554   1.387       .  A
C549        C550   1.400       .  A
C549        S555   1.709       .  A
C550        C551   1.402       .  A
C550        H561   1.083       .  S
C551        C560   1.367       .  A
C551        C552   1.386       .  A
C552        C553   1.403       .  A
C552        S558   1.713       .  A
C553        C554   1.405       .  A
C553        H562   1.083       .  S
C554        C557   1.371       .  A
S555        C556   1.722       .  A
C556        C557   1.388       .  A
C557        H563   1.083       .  S
S558        C559   1.722       .  A
C559        C560   1.387       .  A
C560        H564   1.083       .  S
C565        C570   1.387       .  A
C565        C566   1.395       .  A
C565        S571   1.698       .  A
C566        C567   1.396       .  A
C566        H577   1.083       .  S
C567        C576   1.364       .  A
C567        C568   1.386       .  A
C568        C569   1.409       .  A
C568        S574   1.717       .  A
C569        C570   1.409       .  A
C569        H578   1.083       .  S
C570        C573   1.378       .  A
S571        C572   1.722       .  A
C572        C573   1.391       .  A
C573        H579   1.083       .  S
S574        C575   1.727       .  A
C575        C576   1.384       .  A
C576        H580   1.084       .  S
C581        C586   1.385       .  A
C581        C582   1.403       .  A
C581        S587   1.702       .  A
C582        C583   1.403       .  A
C582        H593   1.083       .  S
C583        C592   1.374       .  A
C583        C584   1.386       .  A
C584        C585   1.401       .  A
C584        S590   1.703       .  A
C585        C586   1.401       .  A
C585        H594   1.083       .  S
C586        C589   1.372       .  A
S587        C588   1.730       .  A
C588        C589   1.391       .  A
C589        H595   1.081       .  S
S590        C591   1.727       .  A
C591        C592   1.389       .  A
C592        H596   1.083       .  S
