geometry optimzed in LAMMPS
_audit_creation_date              2020-11-30 
_audit_creation_method            'lammps2cif' 
_symmetry_space_group_name_H-M    'P1' 
_symmetry_Int_Tables_number       1 
_symmetry_cell_setting            triclinic 
loop_ 
_symmetry_equiv_pos_as_xyz 
  x,y,z 
_cell_length_a                    45.17756797 
_cell_length_b                    44.5959614258436 
_cell_length_c                    33.398258990669994 
_cell_angle_alpha                 90.00515093988604 
_cell_angle_beta                  89.96758303254464 
_cell_angle_gamma                 120.81619719674704 
loop_ 
_atom_site_label 
_atom_site_type_symbol 
_atom_site_fract_x 
_atom_site_fract_y 
_atom_site_fract_z 
_atom_site_charge 
C1          C  0.32945163  0.16596996  0.71096650     0.45600
H2          H  0.32972230  0.16532355  0.67770004    -0.03400
C3          C  0.32894257  0.16771853  0.78898018     0.45600
H4          H  0.32886762  0.16870132  0.82221384    -0.03400
C5          C  0.34752705  0.20294521  0.72838524    -0.17100
C6          C  0.29315447  0.14779949  0.72902580    -0.16900
C7          C  0.34724227  0.14836642  0.73083959    -0.17300
C8          C  0.34754502  0.20391140  0.76939356    -0.17200
C9          C  0.29280450  0.14890348  0.77016207    -0.16800
C10         C  0.34674748  0.14899215  0.77195261    -0.17100
C11         C  0.16458710  0.33905017  0.28821567     0.45600
H12         H  0.16530077  0.34011104  0.32146700    -0.03400
C13         C  0.16272535  0.33662363  0.21025903     0.45600
H14         H  0.16184178  0.33555134  0.17701602    -0.03400
C15         C  0.20030191  0.35605039  0.26853520    -0.17100
C16         C  0.14471334  0.30179109  0.27129030    -0.16900
C17         C  0.14741890  0.35767740  0.26936708    -0.17300
C18         C  0.19930205  0.35466030  0.22745744    -0.17200
C19         C  0.14401896  0.30063061  0.23017387    -0.16800
C20         C  0.14612643  0.35612568  0.22830384    -0.17100
O21         O  0.43127836  0.49354381  0.05099396    -0.78400
C22         C  0.03280694  0.08200192  0.06298332     0.82700
O23         O  0.47210468  0.02812956  0.91575585    -0.79500
O24         O  0.07903320  0.04789844  0.97372683    -0.81000
O25         O  0.00498184  0.44484318  0.05263605    -0.80800
O26         O  0.42836890  0.44234984  0.05046693    -0.79400
Zn27       Zn  0.47304965  0.02690216  0.01748815     1.55700
O28         O  0.05496922  0.49515494  0.05348244    -0.80800
Cd29       Cd  0.47232620  0.45424699  0.01836233     1.59700
Cd30       Cd  0.49796058  0.00443279  0.93842151     1.59600
O31         O  0.45849263  0.42021697  0.97079397    -0.80800
O32         O  0.49692599  0.00388622  0.99842562    -1.91300
Cd33       Cd  0.04381264  0.02781427  0.01986853     1.59900
O34         O  0.47457012  0.45395235  0.91634303    -0.80700
O35         O  0.05186035  0.06956393  0.05424841    -0.79400
C36         C  0.45577463  0.04058644  0.93358779     0.83100
C37         C  0.41620102  0.46146774  0.06070430     0.82800
O38         O  0.00171262  0.06753122  0.05096229    -0.78300
C39         C  0.03632954  0.46310568  0.06350282     0.83600
O40         O  0.45458132  0.04156223  0.97161667    -0.78400
C41         C  0.46104344  0.42402229  0.93293054     0.83700
C42         C  0.07648191  0.04706339  0.93573812     0.84100
O43         O  0.04732088  0.03127279  0.91810074    -0.80900
O44         O  0.06290212  0.01174041  0.55103762    -0.78400
C45         C  0.45753838  0.42152011  0.56180542     0.82700
O46         O  0.02330051  0.48044256  0.41450830    -0.79500
O47         O  0.41326553  0.46033158  0.47292818    -0.81000
O48         O  0.48755435  0.05860278  0.55775006    -0.80800
O49         O  0.06301473  0.06166220  0.55343597    -0.79400
Zn50       Zn  0.02242134  0.47939938  0.51638058     1.55700
O51         O  0.43821243  0.00753886  0.55734975    -0.80800
Cd52       Cd  0.01934331  0.04981673  0.52070652     1.59700
Cd53       Cd  0.49616471  0.00344000  0.43993043     1.59600
O54         O  0.03315627  0.08498061  0.47407930    -0.80800
O55         O  0.49695884  0.00248259  0.49987258    -1.91300
Cd56       Cd  0.44825063  0.47695716  0.51941691     1.59900
O57         O  0.01912824  0.05251411  0.41874191    -0.80700
O58         O  0.43837480  0.43334820  0.55122717    -0.79400
C59         C  0.03844751  0.46628546  0.43134111     0.83100
C60         C  0.07636401  0.04335180  0.56245037     0.82800
O61         O  0.48921529  0.43651574  0.55177010    -0.78300
C62         C  0.45632127  0.03918660  0.56881114     0.83600
O63         O  0.03983443  0.46459440  0.46931746    -0.78400
C64         C  0.03158676  0.08206186  0.43606173     0.83700
C65         C  0.41621079  0.46143789  0.43494305     0.84100
O66         O  0.44560590  0.47607964  0.41785506    -0.80900
C67         C  0.04783336  0.11451351  0.08695668    -0.19800
C68         C  0.02728586  0.12388413  0.10957522     0.36500
C69         C  0.04332014  0.15507567  0.13172135    -0.25700
C70         C  0.07925951  0.17696075  0.13170006     0.02900
C71         C  0.09970374  0.16805914  0.10857437     0.27700
C72         C  0.08382847  0.13683426  0.08675155    -0.24900
N73         N  0.49252401  0.10279689  0.11112593    -0.82200
H74         H  0.02781191  0.16205553  0.14978294     0.13500
C75         C  0.09534322  0.20864190  0.15698313     0.02900
N76         N  0.13650160  0.19093538  0.10718170    -0.80800
H77         H  0.09972650  0.13016774  0.06899948     0.18300
C78         C  0.11924469  0.21238288  0.18625493    -0.25700
C79         C  0.13564626  0.24227935  0.21021009     0.36400
C80         C  0.12709303  0.26834617  0.20592699    -0.19700
C81         C  0.10331813  0.26474296  0.17657923    -0.24900
C82         C  0.08752408  0.23521110  0.15172684     0.27700
H83         H  0.12555505  0.19216021  0.19014177     0.13500
N84         N  0.16181358  0.24660223  0.23776701    -0.82200
H85         H  0.09727287  0.28517645  0.17291373     0.18400
N86         N  0.06408327  0.23231895  0.12079858    -0.80800
H87         H  0.15095069  0.22533247  0.25740350     0.34000
H88         H  0.18121581  0.24582319  0.22157066     0.38500
H89         H  0.06117735  0.25412136  0.12094163     0.34000
H90         H  0.07522608  0.23251303  0.09327686     0.30600
H91         H  0.14780834  0.18052739  0.08886315     0.34000
H92         H  0.14152991  0.21429417  0.09382005     0.30600
H93         H  0.48670117  0.07952862  0.12539378     0.38500
H94         H  0.48132908  0.11395974  0.12838524     0.34000
C95         C  0.38371878  0.44595659  0.08423843    -0.19800
C96         C  0.36244225  0.46077688  0.08456668     0.36500
C97         C  0.33168967  0.44453846  0.10671919    -0.25700
C98         C  0.32207138  0.41450481  0.12943758     0.02900
C99         C  0.34303880  0.39957057  0.12909509     0.27700
C100        C  0.37339902  0.41520648  0.10615013    -0.24900
N101        N  0.37155762  0.49177865  0.06192414    -0.82200
H102        H  0.31522465  0.45562666  0.10670961     0.13500
C103        C  0.29037740  0.39957295  0.15420549     0.02900
N104        N  0.33368686  0.36891967  0.15253497    -0.80800
H105        H  0.38945431  0.40366224  0.10608093     0.18300
C106        C  0.26428723  0.36462706  0.14871292    -0.25700
C107        C  0.23442606  0.34960843  0.17233949     0.36400
C108        C  0.23023880  0.36992641  0.20147265    -0.19700
C109        C  0.25586520  0.40507947  0.20632427    -0.24900
C110        C  0.28616992  0.42000916  0.18340794     0.27700
H111        H  0.26725965  0.34885197  0.12620773     0.13500
N112        N  0.20887306  0.31346867  0.16747150    -0.82200
H113        H  0.25234867  0.42078218  0.22842523     0.18400
N114        N  0.31292489  0.45563305  0.19008381    -0.80800
H115        H  0.22063717  0.29879294  0.17227044     0.34000
H116        H  0.20016454  0.30957501  0.13786891     0.38500
H117        H  0.30570392  0.46699668  0.21251265     0.34000
H118        H  0.33452849  0.45535890  0.20079329     0.30600
H119        H  0.35176150  0.36112725  0.14885653     0.34000
H120        H  0.33454250  0.37561071  0.18269508     0.30600
H121        H  0.39212615  0.51278366  0.07669359     0.38500
H122        H  0.35144746  0.49695111  0.06224087     0.34000
C123        C  0.12946065  0.37073108  0.20326639    -0.19800
C124        C  0.14761930  0.39431757  0.17210822     0.36500
C125        C  0.13167441  0.40885170  0.15000524    -0.25700
C126        C  0.09787966  0.40042723  0.15878958     0.02900
C127        C  0.07945407  0.37641106  0.18971649     0.27700
C128        C  0.09533744  0.36147378  0.21133019    -0.24900
N129        N  0.18262091  0.40443240  0.16371780    -0.82200
H130        H  0.14583228  0.42701888  0.12604405     0.13500
C131        C  0.08206848  0.41676939  0.13515465     0.02900
N132        N  0.04493965  0.36773329  0.19939779    -0.80800
H133        H  0.08120825  0.34283356  0.23489258     0.18300
C134        C  0.05165450  0.39538757  0.11390053    -0.25700
C135        C  0.03619281  0.40970313  0.09035667     0.36400
C136        C  0.05153132  0.44650932  0.08812918    -0.19700
C137        C  0.08207518  0.46782988  0.10960898    -0.24900
C138        C  0.09732990  0.45333462  0.13330767     0.27700
H139        H  0.04025672  0.36730361  0.11515153     0.13500
N140        N  0.00536666  0.38687181  0.06825672    -0.82200
H141        H  0.09392268  0.49595357  0.10835106     0.18400
N142        N  0.12806905  0.47553948  0.15584561    -0.80800
H143        H  0.99697105  0.36070203  0.07433130     0.34000
H144        H  0.01164928  0.39066770  0.03781595     0.38500
H145        H  0.13607635  0.50181425  0.15124839     0.34000
H146        H  0.12190151  0.47044207  0.18622367     0.30600
H147        H  0.03502516  0.34961633  0.22280451     0.34000
H148        H  0.04619222  0.39042872  0.20995572     0.30600
H149        H  0.18410437  0.39829941  0.13385153     0.38500
H150        H  0.19791318  0.43150640  0.16705518     0.34000
C151        C  0.12661334  0.27053129  0.29730260    -0.19800
C152        C  0.14462352  0.26325009  0.32648588     0.36500
C153        C  0.12698878  0.23213258  0.34861895    -0.25700
C154        C  0.09186711  0.20846987  0.34211755     0.02900
C155        C  0.07360774  0.21617729  0.31385649     0.27700
C156        C  0.09119485  0.24727761  0.29173396    -0.24900
N157        N  0.18086681  0.28689272  0.33264333    -0.82200
H158        H  0.14072460  0.22595941  0.37058179     0.13500
C159        C  0.07476103  0.17540448  0.36480687     0.02900
N160        N  0.03736421  0.19242873  0.30786159    -0.80800
H161        H  0.07737150  0.25329612  0.26973086     0.18300
C162        C  0.05819199  0.17365455  0.40089377    -0.25700
C163        C  0.04313272  0.14314978  0.42429504     0.36400
C164        C  0.04506849  0.11399381  0.41129118    -0.19700
C165        C  0.06083981  0.11560235  0.37444043    -0.24900
C166        C  0.07585144  0.14613166  0.35111962     0.27700
H167        H  0.05725788  0.19627747  0.41088926     0.13500
N168        N  0.02569826  0.14160964  0.46095915    -0.82200
H169        H  0.06226306  0.09328934  0.36431440     0.18400
N170        N  0.09294410  0.14790490  0.31409794    -0.80800
H171        H  0.02685666  0.16529991  0.46625472     0.34000
H172        H  0.99964232  0.12277281  0.45728269     0.38500
H173        H  0.09190219  0.12430436  0.30856020     0.34000
H174        H  0.07930275  0.15119600  0.29094383     0.30600
H175        H  0.02771274  0.20223056  0.28634348     0.34000
H176        H  0.03428862  0.16925139  0.29618842     0.30600
H177        H  0.19365588  0.28726215  0.30639747     0.38500
H178        H  0.19015560  0.27772375  0.35531984     0.34000
C179        C  0.23244650  0.37173011  0.29229313    -0.19800
C180        C  0.24071732  0.39925725  0.31908092     0.36500
C181        C  0.27159835  0.41407418  0.34068722    -0.25700
C182        C  0.29422545  0.40161362  0.33603692     0.02900
C183        C  0.28596451  0.37382203  0.30952038     0.27700
C184        C  0.25508784  0.35919335  0.28767744    -0.24900
N185        N  0.21814782  0.41268327  0.32378612    -0.82200
H186        H  0.27791158  0.43530174  0.36129949     0.13500
C187        C  0.32570070  0.41690874  0.36064730     0.02900
N188        N  0.30847396  0.36004983  0.30574785    -0.80800
H189        H  0.24845133  0.33777392  0.26724761     0.18300
C190        C  0.32372036  0.40363076  0.39912491    -0.25700
C191        C  0.35285916  0.41754342  0.42397419     0.36400
C192        C  0.38467600  0.44549400  0.40984226    -0.19700
C193        C  0.38640369  0.45872468  0.37111173    -0.24900
C194        C  0.35710494  0.44487135  0.34646785     0.27700
H195        H  0.29928157  0.38221332  0.40969407     0.13500
N196        N  0.35024292  0.40306790  0.46319296    -0.82200
H197        H  0.41055466  0.48038193  0.36028678     0.18400
N198        N  0.35882146  0.45968803  0.30767204    -0.80800
H199        H  0.32492992  0.38319377  0.46909816     0.34000
H200        H  0.36526465  0.39139814  0.46329291     0.38500
H201        H  0.38367667  0.48063478  0.30210694     0.34000
H202        H  0.35399746  0.44074869  0.28610105     0.30600
H203        H  0.29819868  0.33912376  0.28564695     0.34000
H204        H  0.33164719  0.37949178  0.29326639     0.30600
H205        H  0.21095355  0.41025773  0.35390430     0.38500
H206        H  0.23192389  0.43925590  0.31662685     0.34000
C207        C  0.05500067  0.45134855  0.40656491    -0.19800
C208        C  0.04126626  0.43530963  0.36918814     0.36500
C209        C  0.05742485  0.42055779  0.34757021    -0.25700
C210        C  0.08683937  0.42152619  0.36257355     0.02900
C211        C  0.10085068  0.43780124  0.39950179     0.27700
C212        C  0.08471189  0.45244729  0.42123876    -0.24900
N213        N  0.01062324  0.43334269  0.35373608    -0.82200
H214        H  0.04691781  0.40794743  0.31906468     0.13500
C215        C  0.10269005  0.40520824  0.33932203     0.02900
N216        N  0.13150051  0.43953236  0.41456372    -0.80800
H217        H  0.09547125  0.46492981  0.44972298     0.18300
C218        C  0.13031363  0.42599651  0.31376578    -0.25700
C219        C  0.14606417  0.41158318  0.29111510     0.36400
C220        C  0.13355374  0.37528998  0.29403283    -0.19700
C221        C  0.10625349  0.35465962  0.32016778    -0.24900
C222        C  0.09055994  0.36927279  0.34280526     0.27700
H223        H  0.13982330  0.45372855  0.31158974     0.13500
N224        N  0.17511668  0.43476057  0.26663866    -0.82200
H225        H  0.09674601  0.32691852  0.32226610     0.18400
N226        N  0.06209995  0.34779743  0.36888769    -0.80800
H227        H  0.16612729  0.44387791  0.24357906     0.34000
H228        H  0.18673216  0.42216668  0.25342287     0.38500
H229        H  0.05601606  0.32181850  0.36755453     0.34000
H230        H  0.07002409  0.35620989  0.39824020     0.30600
H231        H  0.13879054  0.45284336  0.44188120     0.34000
H232        H  0.12558036  0.41401520  0.42041854     0.30600
H233        H  0.99032990  0.41744717  0.37306779     0.38500
H234        H  0.00421508  0.42105397  0.32578396     0.34000
C235        C  0.43762688  0.05425036  0.90970607    -0.19800
C236        C  0.40607176  0.05039940  0.92287812     0.36500
C237        C  0.39036691  0.06497747  0.90016830    -0.25700
C238        C  0.40546349  0.08309066  0.86468038     0.02900
C239        C  0.43651275  0.08643935  0.85102361     0.27700
C240        C  0.45224683  0.07179677  0.87359584    -0.24900
N241        N  0.38992946  0.03142573  0.95898341    -0.82200
H242        H  0.36633552  0.06237471  0.91018899     0.13500
C243        C  0.38885269  0.09910794  0.84236596     0.02900
N244        N  0.45216265  0.10524505  0.81468975    -0.80800
H245        H  0.47638553  0.07474778  0.86344049     0.18300
C246        C  0.40012357  0.13441090  0.84873880    -0.25700
C247        C  0.38613714  0.15108635  0.82676107     0.36400
C248        C  0.36056209  0.13194552  0.79780925    -0.19700
C249        C  0.34852304  0.09628940  0.79245060    -0.24900
C250        C  0.36250471  0.07964818  0.81446103     0.27700
H251        H  0.42028355  0.14905984  0.87047814     0.13500
N252        N  0.39844369  0.18750290  0.83295870    -0.82200
H253        H  0.32838937  0.08154246  0.77071684     0.18400
N254        N  0.35017804  0.04317292  0.80862577    -0.80800
H255        H  0.41689694  0.19757154  0.85576106     0.34000
H256        H  0.41105277  0.20070920  0.80681026     0.38500
H257        H  0.33042449  0.03258012  0.78734601     0.34000
H258        H  0.37043762  0.04106151  0.79671246     0.30600
H259        H  0.47517744  0.10574117  0.80904634     0.34000
H260        H  0.43551836  0.09150915  0.79104502     0.30600
H261        H  0.38300918  0.00543705  0.95438134     0.38500
H262        H  0.36706657  0.03126405  0.96453427     0.34000
C263        C  0.36534064  0.23648633  0.79308759    -0.19800
C264        C  0.34687709  0.24555911  0.81934544     0.36500
C265        C  0.36427994  0.27703219  0.84062250    -0.25700
C266        C  0.40002164  0.29921934  0.83660832     0.02900
C267        C  0.41874896  0.28984555  0.81095789     0.27700
C268        C  0.40109558  0.25863005  0.78904110    -0.24900
N269        N  0.31032718  0.22333742  0.82350718    -0.82200
H270        H  0.34988758  0.28418600  0.86044214     0.13500
C271        C  0.41734459  0.33217104  0.85957421     0.02900
N272        N  0.45548052  0.31207982  0.80728337    -0.80800
H273        H  0.41520850  0.25140160  0.76886836     0.18300
C274        C  0.43903154  0.33567006  0.89145069    -0.25700
C275        C  0.45384714  0.36556035  0.91583954     0.36400
C276        C  0.44721077  0.39265039  0.90746994    -0.19700
C277        C  0.42661410  0.38964425  0.87451414    -0.24900
C278        C  0.41136501  0.35948428  0.85062011     0.27700
H279        H  0.44368878  0.31460960  0.89785272     0.13500
N280        N  0.47622749  0.36882634  0.94829811    -0.82200
H281        H  0.42173148  0.41054066  0.86802937     0.18400
N282        N  0.38956599  0.35623569  0.81753465    -0.80800
H283        H  0.48053313  0.34791457  0.94821501     0.34000
H284        H  0.46332389  0.36678093  0.97505493     0.38500
H285        H  0.38758457  0.37852019  0.81513351     0.34000
H286        H  0.40152033  0.35493241  0.79131656     0.30600
H287        H  0.46537730  0.30118143  0.78753497     0.34000
H288        H  0.46037817  0.33558689  0.79448243     0.30600
H289        H  0.29876922  0.23769442  0.81571153     0.38500
H290        H  0.30488129  0.21629859  0.85364152     0.34000
C291        C  0.10829422  0.06392944  0.91128545    -0.19800
C292        C  0.13801306  0.09556108  0.92301332     0.36500
C293        C  0.16761827  0.10991003  0.89876904    -0.25700
C294        C  0.16826938  0.09297895  0.86378657     0.02900
C295        C  0.13887789  0.06146685  0.85211093     0.27700
C296        C  0.10899619  0.04748026  0.87572533    -0.24900
N297        N  0.13785587  0.11348437  0.95874546    -0.82200
H298        H  0.19048867  0.13414155  0.90740790     0.13500
C299        C  0.20027511  0.10808798  0.84008952     0.02900
N300        N  0.13988588  0.04333490  0.81700111    -0.80800
H301        H  0.08640047  0.02310013  0.86688953     0.18300
C302        C  0.22480720  0.09887286  0.84940995    -0.25700
C303        C  0.25517448  0.11205298  0.82694959     0.36400
C304        C  0.26108349  0.13478680  0.79469563    -0.19700
C305        C  0.23683333  0.14464296  0.78603926    -0.24900
C306        C  0.20628695  0.13131031  0.80833475     0.27700
H307        H  0.22017178  0.08111048  0.87398370     0.13500
N308        N  0.27955380  0.10165085  0.83636563    -0.82200
H309        H  0.24187405  0.16297085  0.76201394     0.18400
N310        N  0.18163945  0.14163194  0.79935332    -0.80800
H311        H  0.26702957  0.07444860  0.83442313     0.34000
H312        H  0.28755620  0.10882987  0.86597964     0.38500
H313        H  0.19027050  0.15930003  0.77548341     0.34000
H314        H  0.15897814  0.11950729  0.78967069     0.30600
H315        H  0.11634069  0.02010006  0.81306817     0.34000
H316        H  0.14313979  0.05892440  0.79210719     0.30600
H317        H  0.13809094  0.09902157  0.98322871     0.38500
H318        H  0.16057873  0.13779061  0.96084005     0.34000
C319        C  0.44056375  0.05448517  0.59450367    -0.19800
C320        C  0.41220454  0.03380357  0.61994759     0.36500
C321        C  0.39717445  0.04963932  0.64172957    -0.25700
C322        C  0.40996067  0.08562146  0.63881839     0.02900
C323        C  0.43856220  0.10635036  0.61397966     0.27700
C324        C  0.45369410  0.09063447  0.59238531    -0.24900
N325        N  0.39903955  0.99699099  0.62403109    -0.82200
H326        H  0.37555844  0.03393656  0.66140301     0.13500
C327        C  0.39345936  0.10143366  0.66224334     0.02900
N328        N  0.45174019  0.14320403  0.61025760    -0.80800
H329        H  0.47531872  0.10665158  0.57286580     0.18300
C330        C  0.41351871  0.12848495  0.68921268    -0.25700
C331        C  0.39919196  0.14480949  0.71114462     0.36400
C332        C  0.36381251  0.13295694  0.70702830    -0.19700
C333        C  0.34374833  0.10614187  0.67992113    -0.24900
C334        C  0.35825873  0.09028981  0.65728669     0.27700
H335        H  0.44054874  0.13705286  0.69287535     0.13500
N336        N  0.42045381  0.17358657  0.73721055    -0.82200
H337        H  0.31665057  0.09745776  0.67664035     0.18400
N338        N  0.33754917  0.06319510  0.62906496    -0.80800
H339        H  0.42093117  0.19569254  0.72591009     0.34000
H340        H  0.44587643  0.17903098  0.73688646     0.38500
H341        H  0.31219743  0.05799451  0.62919816     0.34000
H342        H  0.34741372  0.07256711  0.60048435     0.30600
H343        H  0.47296898  0.15474117  0.59096926     0.34000
H344        H  0.43254406  0.14632578  0.59694966     0.30600
H345        H  0.41833258  0.99401688  0.63733111     0.38500
H346        H  0.37797505  0.98564558  0.64356726     0.34000
C347        C  0.44212999  0.38918091  0.58586177    -0.19800
C348        C  0.46094512  0.38393985  0.61600328     0.36500
C349        C  0.44498863  0.35258683  0.63785876    -0.25700
C350        C  0.41066643  0.32672972  0.63037228     0.02900
C351        C  0.39186727  0.33190005  0.60034919     0.27700
C352        C  0.40772197  0.36320347  0.57855822    -0.24900
N353        N  0.99970326  0.40913331  0.62061507    -0.82200
H354        H  0.45910078  0.34847534  0.66132503     0.13500
C355        C  0.39439637  0.29459363  0.65481192     0.02900
N356        N  0.35685520  0.30520136  0.59201736    -0.80800
H357        H  0.39331155  0.36713452  0.55531588     0.18300
C358        C  0.36676000  0.28780681  0.67990201    -0.25700
C359        C  0.35079216  0.25771035  0.70363660     0.36400
C360        C  0.36292977  0.23428972  0.70268057    -0.17700
C361        C  0.39000220  0.24057476  0.67694810    -0.24900
C362        C  0.40596629  0.27065971  0.65291037     0.27700
H363        H  0.35757814  0.30598231  0.68103770     0.13500
N364        N  0.32182893  0.25061135  0.72803311    -0.82200
H365        H  0.39883484  0.22212490  0.67591139     0.18400
N366        N  0.43367334  0.27697174  0.62643611    -0.80800
H367        H  0.32948111  0.27177721  0.74736730     0.34000
H368        H  0.30256589  0.24911069  0.70933097     0.38500
H369        H  0.43910413  0.25688903  0.62872218     0.34000
H370        H  0.42523258  0.27629340  0.59712300     0.30600
H371        H  0.34661383  0.31311980  0.56908454     0.34000
H372        H  0.35720620  0.28333932  0.58135298     0.30600
H373        H  0.99957796  0.43082357  0.63229731     0.38500
H374        H  0.01022742  0.40078024  0.64275315     0.34000
C375        C  0.10846426  0.05908761  0.58650820    -0.19800
C376        C  0.11518660  0.08389311  0.61683838     0.36500
C377        C  0.14609720  0.09817719  0.63869354    -0.25700
C378        C  0.17030247  0.08809164  0.63104239     0.02900
C379        C  0.16372351  0.06344952  0.60071635     0.27700
C380        C  0.13273173  0.04895806  0.57900838    -0.24900
N381        N  0.09032527  0.09390432  0.62597283    -0.82200
H382        H  0.15118447  0.11692013  0.66226613     0.13500
C383        C  0.20228847  0.10335967  0.65535732     0.02900
N384        N  0.18873409  0.05358419  0.59183881    -0.80800
H385        H  0.12776681  0.03011537  0.55560353     0.18300
C386        C  0.20839486  0.08149392  0.67980294    -0.25700
C387        C  0.23799452  0.09495200  0.70373263     0.36400
C388        C  0.26196931  0.13134847  0.70342360    -0.19700
C389        C  0.25614821  0.15310139  0.67848613    -0.24900
C390        C  0.22647677  0.13949869  0.65450497     0.27700
H391        H  0.18994261  0.05367250  0.68028298     0.13500
N392        N  0.24315293  0.07080469  0.72686823    -0.82200
H393        H  0.27466024  0.18091406  0.67819999     0.18400
N394        N  0.22078019  0.16215781  0.62923731    -0.80800
H395        H  0.22421130  0.06044365  0.74913847     0.34000
H396        H  0.26702590  0.08299344  0.74120319     0.38500
H397        H  0.24088129  0.18803780  0.63230035     0.34000
H398        H  0.22132643  0.15502106  0.59954667     0.30600
H399        H  0.17998272  0.03518716  0.56872318     0.34000
H400        H  0.21090608  0.07577926  0.58118776     0.30600
H401        H  0.06826385  0.07182871  0.63703917     0.38500
H402        H  0.09933699  0.11250700  0.64887641     0.34000
C403        C  0.33069479  0.66601458  0.71008318     0.45600
H404        H  0.33138312  0.66583700  0.67681593    -0.03400
C405        C  0.32907742  0.66659202  0.78806736     0.45600
H406        H  0.32827406  0.66682467  0.82130850    -0.03400
C407        C  0.34817279  0.70274443  0.72814361    -0.17100
C408        C  0.29415306  0.64705188  0.72753479    -0.16900
C409        C  0.34876765  0.64868681  0.72989442    -0.17300
C410        C  0.34760188  0.70313048  0.76922054    -0.17200
C411        C  0.29331426  0.64760656  0.76859469    -0.16800
C412        C  0.34755745  0.64857196  0.77103389    -0.17100
C413        C  0.16553948  0.84059015  0.28808113     0.45600
H414        H  0.16626668  0.84152465  0.32133840    -0.03400
C415        C  0.16356039  0.83827718  0.21012548     0.45600
H416        H  0.16261331  0.83725126  0.17688479    -0.03400
C417        C  0.20123305  0.85785464  0.26837646    -0.17100
C418        C  0.14594225  0.80338979  0.27103173    -0.16900
C419        C  0.14804261  0.85896498  0.26948715    -0.17300
C420        C  0.20021219  0.85651327  0.22728385    -0.17200
C421        C  0.14505266  0.80219345  0.22991419    -0.16800
C422        C  0.14676233  0.85755602  0.22841175    -0.17100
O423        O  0.43212403  0.99419803  0.05059530    -0.78400
C424        C  0.03413262  0.58262108  0.06234833     0.82700
O425        O  0.47177112  0.52772346  0.91625996    -0.79500
O426        O  0.08032045  0.54764676  0.97282339    -0.81000
O427        O  0.00449017  0.94504081  0.05376717    -0.80800
O428        O  0.42949081  0.94311946  0.05096665    -0.79400
Zn429      Zn  0.47225245  0.52614676  0.01782921     1.55700
O430        O  0.05441344  0.99542950  0.05384670    -0.80800
Cd431      Cd  0.47287995  0.95458666  0.01788712     1.59700
Cd432      Cd  0.49775641  0.50426321  0.93899413     1.59600
O433        O  0.45822202  0.92026090  0.97035905    -0.80800
O434        O  0.49649144  0.50349621  0.99893735    -1.91300
Cd435      Cd  0.04505126  0.52808420  0.01925981     1.59900
O436        O  0.47412531  0.95393096  0.91578909    -0.80700
O437        O  0.05320836  0.57015886  0.05363756    -0.79400
C438        C  0.45515411  0.53985471  0.93407554     0.83100
C439        C  0.41730988  0.96228614  0.06095671     0.82800
O440        O  0.00304710  0.56805024  0.05023913    -0.78300
C441        C  0.03595480  0.96346830  0.06415049     0.83600
O442        O  0.45362990  0.54051199  0.97206723    -0.78400
C443        C  0.46043974  0.92402263  0.93247028     0.83700
C444        C  0.07755073  0.54642838  0.93479256     0.84100
O445        O  0.04833064  0.53088726  0.91731607    -0.80900
O446        O  0.06379152  0.51195749  0.54947867    -0.78400
C447        C  0.45930446  0.92172050  0.56187675     0.82700
O448        O  0.02136955  0.97785476  0.41687124    -0.79500
O449        O  0.41351860  0.95934029  0.47372264    -0.81000
O450        O  0.48915134  0.55886624  0.55683252    -0.80800
O451        O  0.06459062  0.56220941  0.55203032    -0.79400
Zn452      Zn  0.02093722  0.97846887  0.51875211     1.55700
O453        O  0.43912532  0.50847516  0.55671314    -0.80800
Cd454      Cd  0.02081329  0.55084175  0.51995620     1.59700
Cd455      Cd  0.49578185  0.50214058  0.43912204     1.59600
O456        O  0.03441805  0.58665492  0.47401764    -0.80800
O457        O  0.49667091  0.50170134  0.49908981    -1.91300
Cd458      Cd  0.44852472  0.97666106  0.52029146     1.59900
O459        O  0.02080478  0.55474051  0.41827533    -0.80700
O460        O  0.43980734  0.93338199  0.55211338    -0.79400
C461        C  0.03630613  0.96363638  0.43407239     0.83100
C462        C  0.07752673  0.54353021  0.56107895     0.82800
O463        O  0.49086731  0.93704310  0.55126196    -0.78300
C464        C  0.45795000  0.54002953  0.56818329     0.83600
O465        O  0.03775028  0.96233742  0.47210881    -0.78400
C466        C  0.03305674  0.58408754  0.43597176     0.83700
C467        C  0.41657666  0.96134057  0.43574161     0.84100
O468        O  0.44601754  0.97703431  0.41875032    -0.80900
C469        C  0.04904218  0.61521012  0.08647609    -0.19800
C470        C  0.02833866  0.62556264  0.10717745     0.36500
C471        C  0.04424906  0.65667915  0.12956314    -0.25700
C472        C  0.08026388  0.67785091  0.13145118     0.02900
C473        C  0.10088163  0.66801996  0.11004140     0.27700
C474        C  0.08510825  0.63671248  0.08826686    -0.24900
N475        N  0.49207828  0.60446973  0.10776541    -0.82200
H476        H  0.02847686  0.66414569  0.14631167     0.13500
C477        C  0.09617795  0.70968719  0.15688841     0.02900
N478        N  0.13780297  0.69008034  0.11019708    -0.80800
H479        H  0.10121948  0.62940006  0.07200850     0.18300
C480        C  0.12048447  0.71388609  0.18590666    -0.25700
C481        C  0.13696578  0.74394114  0.20966878     0.36400
C482        C  0.12807184  0.76977621  0.20568943    -0.19700
C483        C  0.10370234  0.76565988  0.17689226    -0.24900
C484        C  0.08780491  0.73596937  0.15217105     0.27700
H485        H  0.12708736  0.69388011  0.18978737     0.13500
N486        N  0.16356632  0.74864663  0.23675109    -0.82200
H487        H  0.09726336  0.78583615  0.17354288     0.18400
N488        N  0.06369367  0.73268376  0.12192197    -0.80800
H489        H  0.15310312  0.72748909  0.25654198     0.34000
H490        H  0.18285829  0.74796154  0.22020140     0.38500
H491        H  0.06034281  0.75420593  0.12250669     0.34000
H492        H  0.07445701  0.73306562  0.09406744     0.30600
H493        H  0.14922361  0.67905096  0.09311546     0.34000
H494        H  0.14392892  0.71356029  0.09624377     0.30600
H495        H  0.48597301  0.58142850  0.12278620     0.38500
H496        H  0.48096580  0.61613590  0.12426349     0.34000
C497        C  0.38511320  0.94704161  0.08498694    -0.19800
C498        C  0.36367510  0.96167776  0.08505952     0.36500
C499        C  0.33307254  0.94557714  0.10746848    -0.25700
C500        C  0.32376446  0.91588152  0.13067660     0.02900
C501        C  0.34500663  0.90127431  0.13086192     0.27700
C502        C  0.37523085  0.91675381  0.10765886    -0.24900
N503        N  0.37245947  0.99233212  0.06188360    -0.82200
H504        H  0.31644331  0.95647538  0.10722212     0.13500
C505        C  0.29201218  0.90095368  0.15528131     0.02900
N506        N  0.33603672  0.87110579  0.15504061    -0.80800
H507        H  0.39148387  0.90543462  0.10790721     0.18300
C508        C  0.26571913  0.86617151  0.14934042    -0.25700
C509        C  0.23550735  0.85135674  0.17236411     0.36400
C510        C  0.23124165  0.87171181  0.20139657    -0.19700
C511        C  0.25716836  0.90670319  0.20672520    -0.24900
C512        C  0.28779081  0.92139576  0.18442572     0.27700
H513        H  0.26876875  0.85039927  0.12689869     0.13500
N514        N  0.20967820  0.81537789  0.16699705    -0.82200
H515        H  0.25367163  0.92243205  0.22880684     0.18400
N516        N  0.31485930  0.95678548  0.19165194    -0.80800
H517        H  0.22105835  0.80036991  0.17200446     0.34000
H518        H  0.20141330  0.81181773  0.13722737     0.38500
H519        H  0.30762875  0.96818971  0.21402132     0.34000
H520        H  0.33609848  0.95599002  0.20269935     0.30600
H521        H  0.35432072  0.86354564  0.15174886     0.34000
H522        H  0.33692461  0.87828471  0.18501982     0.30600
H523        H  0.39307754  0.01359170  0.07626797     0.38500
H524        H  0.35226154  0.99737375  0.06214495     0.34000
C525        C  0.12997863  0.87212502  0.20355655    -0.19800
C526        C  0.14806941  0.89579987  0.17244509     0.36500
C527        C  0.13204339  0.91030899  0.15048078    -0.25700
C528        C  0.09819129  0.90163953  0.15924846     0.02900
C529        C  0.07978204  0.87747484  0.19003124     0.27700
C530        C  0.09579261  0.86266263  0.21162516    -0.24900
N531        N  0.18304195  0.90592506  0.16385711    -0.82200
H532        H  0.14614413  0.92858206  0.12658225     0.13500
C533        C  0.08225391  0.91778314  0.13560414     0.02900
N534        N  0.04512983  0.86845772  0.19949774    -0.80800
H535        H  0.08168270  0.84389007  0.23507701     0.18300
C536        C  0.05258878  0.89629676  0.11321322    -0.25700
C537        C  0.03713706  0.91048116  0.08946235     0.36400
C538        C  0.05150434  0.94716762  0.08854253    -0.19700
C539        C  0.08136986  0.96861745  0.11104231    -0.24900
C540        C  0.09678395  0.95427307  0.13470048     0.27700
H541        H  0.04185668  0.86829089  0.11368213     0.13500
N542        N  0.00741289  0.88771405  0.06568271    -0.82200
H543        H  0.09252517  0.99667395  0.11059246     0.18400
N544        N  0.12695992  0.97652271  0.15807935    -0.80800
H545        H  0.99977361  0.86156548  0.07058652     0.34000
H546        H  0.01471249  0.89287799  0.03559449     0.38500
H547        H  0.13449159  0.00273808  0.15405686     0.34000
H548        H  0.12031739  0.97075218  0.18826998     0.30600
H549        H  0.03523429  0.85024530  0.22281095     0.34000
H550        H  0.04610992  0.89100700  0.21011260     0.30600
H551        H  0.18441010  0.89978578  0.13395992     0.38500
H552        H  0.19834081  0.93299926  0.16717491     0.34000
C553        C  0.12822382  0.77224162  0.29711367    -0.19800
C554        C  0.14659319  0.76517283  0.32601283     0.36500
C555        C  0.12914569  0.73437800  0.34869706    -0.25700
C556        C  0.09388021  0.71087155  0.34297303     0.02900
C557        C  0.07534316  0.71831907  0.31484389     0.27700
C558        C  0.09272955  0.74911350  0.29222024    -0.24900
N559        N  0.18296597  0.78871448  0.33135537    -0.82200
H560        H  0.14311974  0.72831199  0.37043867     0.13500
C561        C  0.07698075  0.67789241  0.36573479     0.02900
N562        N  0.03904963  0.69451008  0.30934977    -0.80800
H563        H  0.07868769  0.75499610  0.27037875     0.18300
C564        C  0.05930476  0.67562085  0.40109979    -0.25700
C565        C  0.04395638  0.64492073  0.42417468     0.36400
C566        C  0.04673854  0.61617695  0.41154886    -0.19700
C567        C  0.06362599  0.61832268  0.37540380    -0.24900
C568        C  0.07890556  0.64900667  0.35241710     0.27700
H569        H  0.05766548  0.69793504  0.41073105     0.13500
N570        N  0.02532090  0.64271939  0.46004321    -0.82200
H571        H  0.06566342  0.59628947  0.36557897     0.18400
N572        N  0.09696215  0.65128950  0.31601253    -0.80800
H573        H  0.02591425  0.66616136  0.46511519     0.34000
H574        H  0.99948692  0.62362291  0.45538509     0.38500
H575        H  0.09636902  0.62788952  0.31063812     0.34000
H576        H  0.08372201  0.65454816  0.29235175     0.30600
H577        H  0.02920116  0.70407360  0.28778651     0.34000
H578        H  0.03589545  0.67121680  0.29794337     0.30600
H579        H  0.19529433  0.78870995  0.30487287     0.38500
H580        H  0.19252712  0.77970354  0.35389689     0.34000
C581        C  0.23336107  0.87333060  0.29220695    -0.19800
C582        C  0.24144965  0.90039306  0.31964304     0.36500
C583        C  0.27222067  0.91488289  0.34145210    -0.25700
C584        C  0.29491756  0.90255351  0.33636066     0.02900
C585        C  0.28688040  0.87528903  0.30913000     0.27700
C586        C  0.25609816  0.86095424  0.28714439    -0.24900
N587        N  0.21879047  0.91365891  0.32484692    -0.82200
H588        H  0.27838721  0.93574126  0.36256927     0.13500
C589        C  0.32630782  0.91749096  0.36110111     0.02900
N590        N  0.30955208  0.86176796  0.30472733    -0.80800
H591        H  0.24961200  0.83987837  0.26624391     0.18300
C592        C  0.32438641  0.90325257  0.39900605    -0.25700
C593        C  0.35347851  0.91682345  0.42392280     0.36400
C594        C  0.38514517  0.94543810  0.41047285    -0.19700
C595        C  0.38682481  0.95954469  0.37227669    -0.24900
C596        C  0.35761661  0.94598396  0.34754164     0.27700
H597        H  0.30004019  0.88136865  0.40906810     0.13500
N598        N  0.35097384  0.90136078  0.46249604    -0.82200
H599        H  0.41086808  0.98167136  0.36195311     0.18400
N600        N  0.35933345  0.96158074  0.30926422    -0.80800
H601        H  0.32576806  0.88103913  0.46794009     0.34000
H602        H  0.36635531  0.89009829  0.46176984     0.38500
H603        H  0.38411947  0.98281031  0.30412637     0.34000
H604        H  0.35479443  0.94316938  0.28710550     0.30600
H605        H  0.29946174  0.84124319  0.28408897     0.34000
H606        H  0.33273562  0.88153560  0.29261798     0.30600
H607        H  0.21144187  0.91069766  0.35494492     0.38500
H608        H  0.23254930  0.94035037  0.31829136     0.34000
C609        C  0.05279093  0.94848633  0.40950709    -0.19800
C610        C  0.03888368  0.93210423  0.37232896     0.36500
C611        C  0.05553086  0.91809069  0.35028114    -0.25700
C612        C  0.08562150  0.92010797  0.36464768     0.02900
C613        C  0.09960562  0.93643745  0.40158480     0.27700
C614        C  0.08296368  0.95034107  0.42376248    -0.24900
N615        N  0.00763022  0.92913972  0.35746568    -0.82200
H616        H  0.04493389  0.90531774  0.32187424     0.13500
C617        C  0.10200683  0.90454918  0.34086865     0.02900
N618        N  0.13073248  0.93897345  0.41621922    -0.80800
H619        H  0.09379572  0.96301163  0.45214367     0.18300
C620        C  0.13001865  0.92603700  0.31607917    -0.25700
C621        C  0.14604389  0.91223094  0.29279144     0.36400
C622        C  0.13359011  0.87589631  0.29447067    -0.19700
C623        C  0.10589430  0.85456691  0.31981987    -0.24900
C624        C  0.08981297  0.86852672  0.34291821     0.27700
H625        H  0.13953202  0.95380945  0.31488974     0.13500
N626        N  0.17524042  0.93600514  0.26887019    -0.82200
H627        H  0.09639726  0.82679045  0.32095579     0.18400
N628        N  0.06092861  0.84631179  0.36810460    -0.80800
H629        H  0.16636496  0.94568049  0.24629419     0.34000
H630        H  0.18684760  0.92369857  0.25493560     0.38500
H631        H  0.05485571  0.82038162  0.36579183     0.34000
H632        H  0.06837929  0.85387585  0.39777318     0.30600
H633        H  0.13789082  0.95215166  0.44362464     0.34000
H634        H  0.12547076  0.91363123  0.42178372     0.30600
H635        H  0.98777136  0.91300812  0.37716582     0.38500
H636        H  0.00110957  0.91667079  0.32961928     0.34000
C637        C  0.43724373  0.55371328  0.91022664    -0.19800
C638        C  0.40534715  0.54933638  0.92282694     0.36500
C639        C  0.38984088  0.56405757  0.90004003    -0.25700
C640        C  0.40556390  0.58290722  0.86514568     0.02900
C641        C  0.43719473  0.58717767  0.85234547     0.27700
C642        C  0.45263448  0.57225268  0.87488170    -0.24900
N643        N  0.38868719  0.52970863  0.95840734    -0.82200
H644        H  0.36545466  0.56092917  0.90947963     0.13500
C645        C  0.38894207  0.59864423  0.84246829     0.02900
N646        N  0.45381230  0.60735238  0.81707107    -0.80800
H647        H  0.47716455  0.57579847  0.86536461     0.18300
C648        C  0.39792631  0.63302908  0.85101005    -0.25700
C649        C  0.38430338  0.64971980  0.82845420     0.36400
C650        C  0.36112513  0.63138736  0.79702798    -0.19700
C651        C  0.35116094  0.59646637  0.78960500    -0.24900
C652        C  0.36510400  0.57995476  0.81187108     0.27700
H653        H  0.41622520  0.64706753  0.87475279     0.13500
N654        N  0.39473990  0.68545944  0.83650500    -0.82200
H655        H  0.33273406  0.58221805  0.76605310     0.18400
N656        N  0.35519842  0.54436431  0.80365769    -0.80800
H657        H  0.41155434  0.69495646  0.86094457     0.34000
H658        H  0.40871463  0.70023334  0.81172202     0.38500
H659        H  0.33709402  0.53425155  0.78049833     0.34000
H660        H  0.37698861  0.54429501  0.79326162     0.30600
H661        H  0.47724590  0.60853733  0.81214449     0.34000
H662        H  0.43812417  0.59429065  0.79250438     0.30600
H663        H  0.38204820  0.50385722  0.95334847     0.38500
H664        H  0.36563573  0.52926188  0.96359159     0.34000
C665        C  0.36504367  0.73537193  0.79366059    -0.19800
C666        C  0.34652882  0.74297233  0.82159436     0.36500
C667        C  0.36345037  0.77429363  0.84325533    -0.25700
C668        C  0.39874617  0.79810735  0.83760094     0.02900
C669        C  0.41753855  0.79020962  0.81015009     0.27700
C670        C  0.40043937  0.75885137  0.78840472    -0.24900
N671        N  0.31030413  0.71949125  0.82696577    -0.82200
H672        H  0.34895197  0.78016253  0.86446833     0.13500
C673        C  0.41553164  0.83124941  0.86052719     0.02900
N674        N  0.45374026  0.81421587  0.80419923    -0.80800
H675        H  0.41468925  0.75268558  0.76715715     0.18300
C676        C  0.44201885  0.83802932  0.88754108    -0.25700
C677        C  0.45732779  0.86838622  0.91119913     0.36400
C678        C  0.44615284  0.89255488  0.90719780    -0.19700
C679        C  0.42043103  0.88630879  0.87931438    -0.24900
C680        C  0.40481592  0.85573044  0.85605957     0.27700
H681        H  0.45027734  0.81922034  0.89067428     0.13500
N682        N  0.48473730  0.87519576  0.93842506    -0.82200
H683        H  0.41204934  0.90503216  0.87630001     0.18400
N684        N  0.37805874  0.84931365  0.82801698    -0.80800
H685        H  0.49111679  0.85579368  0.93606698     0.34000
H686        H  0.47551947  0.87351740  0.96753361     0.38500
H687        H  0.37302657  0.86973223  0.82854392     0.34000
H688        H  0.38720862  0.84908412  0.79932249     0.30600
H689        H  0.46374747  0.80434431  0.78320273     0.34000
H690        H  0.45650821  0.83708297  0.79192208     0.30600
H691        H  0.29758656  0.73297637  0.82046573     0.38500
H692        H  0.30591515  0.71208495  0.85708061     0.34000
C693        C  0.10918652  0.56279972  0.91007745    -0.19800
C694        C  0.13920698  0.59396849  0.92202221     0.36500
C695        C  0.16904562  0.60761858  0.89825528    -0.25700
C696        C  0.16928497  0.59079241  0.86296522     0.02900
C697        C  0.13938901  0.55996168  0.85076282     0.27700
C698        C  0.10951044  0.54634582  0.87434804    -0.24900
N699        N  0.13914907  0.61184115  0.95783260    -0.82200
H700        H  0.19220608  0.63147448  0.90715182     0.13500
C701        C  0.20106325  0.60577265  0.83884647     0.02900
N702        N  0.13977645  0.54234289  0.81487878    -0.80800
H703        H  0.08658141  0.52236443  0.86525382     0.18300
C704        C  0.22410995  0.59400912  0.84504973    -0.25700
C705        C  0.25430149  0.60737140  0.82221764     0.36400
C706        C  0.26138694  0.63266029  0.79266359    -0.19700
C707        C  0.23837483  0.64452500  0.78656870    -0.24900
C708        C  0.20813907  0.63125170  0.80946107     0.27700
H709        H  0.21853465  0.57429933  0.86756787     0.13500
N710        N  0.27732259  0.59464518  0.82838882    -0.82200
H711        H  0.24423124  0.66440601  0.76418969     0.18400
N712        N  0.18477608  0.64372439  0.80339098    -0.80800
H713        H  0.26360432  0.56764860  0.82377060     0.34000
H714        H  0.28548969  0.59932151  0.85820578     0.38500
H715        H  0.19402459  0.66280546  0.78100289     0.34000
H716        H  0.16153042  0.62284315  0.79284244     0.30600
H717        H  0.11583163  0.51969061  0.81042510     0.34000
H718        H  0.14360774  0.55878263  0.79064622     0.30600
H719        H  0.16331126  0.63418669  0.96239041     0.38500
H720        H  0.12175157  0.62041887  0.95347573     0.34000
C721        C  0.44308373  0.55593218  0.59421549    -0.19800
C722        C  0.41512260  0.53573048  0.62032307     0.36500
C723        C  0.40059542  0.55203041  0.64209316    -0.25700
C724        C  0.41360480  0.58799682  0.63857992     0.02900
C725        C  0.44199240  0.60832505  0.61338162     0.27700
C726        C  0.45658836  0.59213617  0.59169279    -0.24900
N727        N  0.40179723  0.49893201  0.62496214    -0.82200
H728        H  0.37906947  0.53669616  0.66203067     0.13500
C729        C  0.39702494  0.60400197  0.66123300     0.02900
N730        N  0.45538222  0.64518683  0.60930565    -0.80800
H731        H  0.47797718  0.60777406  0.57171599     0.18300
C732        C  0.41621999  0.62973085  0.68988924    -0.25700
C733        C  0.40131056  0.64546400  0.71188672     0.36400
C734        C  0.36623381  0.63431467  0.70591521    -0.19700
C735        C  0.34728117  0.60920366  0.67663455    -0.24900
C736        C  0.36241981  0.59403402  0.65399028     0.27700
H737        H  0.44293026  0.63758735  0.69494279     0.13500
N738        N  0.42163811  0.67285767  0.73995682    -0.82200
H739        H  0.32050149  0.60118764  0.67176642     0.18400
N740        N  0.34295272  0.56871280  0.62353356    -0.80800
H741        H  0.42294905  0.69564547  0.72962974     0.34000
H742        H  0.44691015  0.67788669  0.74085061     0.38500
H743        H  0.31788703  0.56424347  0.62203776     0.34000
H744        H  0.35457023  0.57943717  0.59597987     0.30600
H745        H  0.47639225  0.65638928  0.58968569     0.34000
H746        H  0.43616246  0.64837476  0.59618102     0.30600
H747        H  0.42122586  0.49596711  0.63788649     0.38500
H748        H  0.38109407  0.48799019  0.64501868     0.34000
C749        C  0.44433261  0.88913845  0.58555743    -0.19800
C750        C  0.46361006  0.88349889  0.61474614     0.36500
C751        C  0.44778048  0.85210512  0.63660250    -0.25700
C752        C  0.41318591  0.82656193  0.62995690     0.02900
C753        C  0.39409526  0.83193294  0.60051842     0.27700
C754        C  0.40976212  0.86329846  0.57885677    -0.24900
N755        N  0.99665601  0.91066025  0.62666879    -0.82200
H756        H  0.46218249  0.84777606  0.65949821     0.13500
C757        C  0.39677937  0.79465344  0.65483209     0.02900
N758        N  0.35892452  0.80537733  0.59269987    -0.80800
H759        H  0.39502229  0.86741572  0.55621990     0.18300
C760        C  0.36997058  0.78890426  0.68080101    -0.25700
C761        C  0.35348124  0.75882136  0.70453718     0.36400
C762        C  0.36431090  0.73436212  0.70277717    -0.17700
C763        C  0.39068360  0.73972980  0.67632341    -0.24900
C764        C  0.40708514  0.76975435  0.65219413     0.27700
H765        H  0.36172709  0.80781622  0.68247827     0.13500
N766        N  0.32523933  0.75276147  0.72966984    -0.82200
H767        H  0.39859339  0.72055682  0.67473984     0.18400
N768        N  0.43388165  0.77497868  0.62481702    -0.80800
H769        H  0.33391635  0.77392885  0.74924908     0.34000
H770        H  0.30609764  0.75218426  0.71154040     0.38500
H771        H  0.43839593  0.75424458  0.62660000     0.34000
H772        H  0.42499065  0.77458928  0.59581094     0.30600
H773        H  0.34845962  0.81340749  0.57014303     0.34000
H774        H  0.35901224  0.78346807  0.58170076     0.30600
H775        H  0.99555972  0.93196716  0.63787736     0.38500
H776        H  0.00685724  0.90262009  0.64952384     0.34000
C777        C  0.10946178  0.55870699  0.58538220    -0.19800
C778        C  0.11780318  0.58551059  0.61361654     0.36500
C779        C  0.14859704  0.59922180  0.63553612    -0.25700
C780        C  0.17113876  0.58667856  0.63003475     0.02900
C781        C  0.16277618  0.55977674  0.60210937     0.27700
C782        C  0.13192881  0.54591895  0.58027837    -0.24900
N783        N  0.09475060  0.59825625  0.62055017    -0.82200
H784        H  0.15493069  0.61956267  0.65744890     0.13500
C785        C  0.20334270  0.60198829  0.65392612     0.02900
N786        N  0.18585328  0.54698175  0.59569778    -0.80800
H787        H  0.12571674  0.52544405  0.55859992     0.18300
C788        C  0.20918314  0.58040387  0.67919334    -0.25700
C789        C  0.23900316  0.59398286  0.70268465     0.36400
C790        C  0.26318054  0.63032846  0.70166559    -0.19700
C791        C  0.25766880  0.65177766  0.67587769    -0.24900
C792        C  0.22804043  0.63796567  0.65183768     0.27700
H793        H  0.19042587  0.55268617  0.68055481     0.13500
N794        N  0.24425706  0.56995450  0.72592051    -0.82200
H795        H  0.27641737  0.67952013  0.67490464     0.18400
N796        N  0.22290867  0.66025019  0.62524323    -0.80800
H797        H  0.22573528  0.56005269  0.74866702     0.34000
H798        H  0.26845880  0.58209340  0.73948127     0.38500
H799        H  0.24338041  0.68603337  0.62743100     0.34000
H800        H  0.22320975  0.65209748  0.59596904     0.30600
H801        H  0.17586395  0.52710148  0.57424549     0.34000
H802        H  0.20875052  0.56748612  0.58384974     0.30600
H803        H  0.07203904  0.57774499  0.63274916     0.38500
H804        H  0.10492235  0.61817441  0.64195565     0.34000
C805        C  0.83032707  0.16573178  0.71016448     0.45600
H806        H  0.83088986  0.16517616  0.67690477    -0.03400
C807        C  0.82906676  0.16714687  0.78812343     0.45600
H808        H  0.82869079  0.16801484  0.82135208    -0.03400
C809        C  0.84816005  0.20265717  0.72767325    -0.17100
C810        C  0.79386143  0.14728940  0.72781295    -0.16900
C811        C  0.84808035  0.14822231  0.73032274    -0.17300
C812        C  0.84762770  0.20338428  0.76869249    -0.17200
C813        C  0.79313730  0.14813917  0.76894185    -0.16800
C814        C  0.84720103  0.14869324  0.77141837    -0.17100
C815        C  0.66581915  0.34088058  0.28867620     0.45600
H816        H  0.66648735  0.34188679  0.32192831    -0.03400
C817        C  0.66399417  0.33842311  0.21074061     0.45600
H818        H  0.66299844  0.33725282  0.17751498    -0.03400
C819        C  0.70156501  0.35778154  0.26904875    -0.17100
C820        C  0.64592704  0.30362000  0.27176204    -0.16900
C821        C  0.64865571  0.35953473  0.26985156    -0.17300
C822        C  0.70062683  0.35635885  0.22791194    -0.17200
C823        C  0.64525092  0.30243736  0.23065910    -0.16800
C824        C  0.64739649  0.35797299  0.22875434    -0.17100
O825        O  0.93146717  0.49171793  0.05045163    -0.78400
C826        C  0.53492428  0.08322988  0.06355030     0.82700
O827        O  0.97014615  0.02629970  0.91626837    -0.79500
O828        O  0.58015588  0.04832195  0.97379105    -0.81000
O829        O  0.50404752  0.44505335  0.05408297    -0.80800
O830        O  0.92893328  0.44069639  0.04848162    -0.79400
Zn831      Zn  0.97100893  0.02476020  0.01797098     1.55700
O832        O  0.55421409  0.49519909  0.05449508    -0.80800
Cd833      Cd  0.97325429  0.45366860  0.01671910     1.59700
Cd834      Cd  0.99686048  0.00344043  0.93867395     1.59600
O835        O  0.95992955  0.41991990  0.96903824    -0.80800
O836        O  0.99573484  0.00266910  0.99866065    -1.91300
Cd837      Cd  0.54493519  0.02861937  0.01986053     1.59900
O838        O  0.97457796  0.45386916  0.91480987    -0.80700
O839        O  0.55362462  0.07034330  0.05497259    -0.79400
C840        C  0.95364250  0.03851555  0.93420710     0.83100
C841        C  0.91653792  0.45944060  0.05937012     0.82800
O842        O  0.50407073  0.06942044  0.05084623    -0.78300
C843        C  0.53551436  0.46319802  0.06461070     0.83600
O844        O  0.95238611  0.03930127  0.97223326    -0.78400
C845        C  0.96172902  0.42395234  0.93121898     0.83700
C846        C  0.57763381  0.04695943  0.93579963     0.84100
O847        O  0.54849471  0.03119748  0.91810358    -0.80900
O848        O  0.56350011  0.01273213  0.55029991    -0.78400
C849        C  0.96004359  0.42093054  0.55994157     0.82700
O850        O  0.52084990  0.47792617  0.41586299    -0.79500
O851        O  0.91485211  0.45891564  0.47167753    -0.81000
O852        O  0.98666688  0.05709327  0.55717734    -0.80800
O853        O  0.56381246  0.06274692  0.55325768    -0.79400
Zn854      Zn  0.52074244  0.47860994  0.51781734     1.55700
O855        O  0.93704636  0.00632396  0.55589544    -0.80800
Cd856      Cd  0.52008403  0.05126231  0.52092375     1.59700
Cd857      Cd  0.99586566  0.00167598  0.43994338     1.59600
O858        O  0.53405634  0.08668078  0.47449888    -0.80800
O859        O  0.99630084  0.00099857  0.49991096    -1.91300
Cd860      Cd  0.94935186  0.47611957  0.51870858     1.59900
O861        O  0.51926511  0.05430058  0.41905720    -0.80700
O862        O  0.94050129  0.43256306  0.55024657    -0.79400
C863        C  0.53575514  0.46367291  0.43306552     0.83100
C864        C  0.57708389  0.04429698  0.56192750     0.82800
O865        O  0.99162845  0.43643799  0.54947690    -0.78300
C866        C  0.95526988  0.03784935  0.56768602     0.83600
O867        O  0.53728328  0.46243904  0.47109045    -0.78400
C868        C  0.53218051  0.08383825  0.43647745     0.83700
C869        C  0.91816862  0.46147365  0.43373158     0.84100
O870        O  0.94764515  0.47765469  0.41688018    -0.80900
C871        C  0.55001515  0.11545581  0.08815958    -0.19800
C872        C  0.52942043  0.12493618  0.11051172     0.36500
C873        C  0.54539459  0.15606419  0.13280625    -0.25700
C874        C  0.58135794  0.17786978  0.13322057     0.02900
C875        C  0.60189076  0.16865075  0.11068535     0.27700
C876        C  0.58605091  0.13744094  0.08875210    -0.24900
N877        N  0.99041971  0.10156190  0.11066582    -0.82200
H878        H  0.52977615  0.16311205  0.15054702     0.13500
C879        C  0.59730165  0.20986164  0.15817353     0.02900
N880        N  0.63874064  0.19124494  0.10984674    -0.80800
H881        H  0.60200978  0.13060766  0.07137891     0.18300
C882        C  0.62171252  0.21437679  0.18716685    -0.25700
C883        C  0.63790211  0.24450606  0.21079335     0.36400
C884        C  0.62866635  0.27006233  0.20651032    -0.19700
C885        C  0.60439686  0.26573490  0.17748986    -0.24900
C886        C  0.58874942  0.23594500  0.15298272     0.27700
H887        H  0.62854120  0.19454677  0.19116751     0.13500
N888        N  0.66449995  0.24956956  0.23810107    -0.82200
H889        H  0.59780312  0.28577567  0.17385979     0.18400
N890        N  0.56467321  0.23230028  0.12249553    -0.80800
H891        H  0.65413095  0.22848517  0.25799225     0.34000
H892        H  0.68397141  0.24904862  0.22175735     0.38500
H893        H  0.56121340  0.25375886  0.12268789     0.34000
H894        H  0.57555237  0.23253815  0.09477138     0.30600
H895        H  0.65010133  0.18061885  0.09196994     0.34000
H896        H  0.64416132  0.21465336  0.09627332     0.30600
H897        H  0.98487577  0.07842197  0.12504168     0.38500
H898        H  0.97927332  0.11270494  0.12804506     0.34000
C899        C  0.88399187  0.44335270  0.08282723    -0.19800
C900        C  0.86357849  0.45904043  0.08515256     0.36500
C901        C  0.83375427  0.44356837  0.10887984    -0.25700
C902        C  0.82357557  0.41272507  0.13017669     0.02900
C903        C  0.84322827  0.39642273  0.12713372     0.27700
C904        C  0.87315119  0.41182178  0.10334360    -0.24900
N905        N  0.87281422  0.49035034  0.06310707    -0.82200
H906        H  0.81810769  0.45553942  0.11064141     0.13500
C907        C  0.79234544  0.39824839  0.15569834     0.02900
N908        N  0.83304637  0.36467542  0.14870342    -0.80800
H909        H  0.88845755  0.39949128  0.10155079     0.18300
C910        C  0.76479421  0.36424758  0.14882467    -0.25700
C911        C  0.73467656  0.35024559  0.17195358     0.36400
C912        C  0.73167418  0.37073991  0.20195973    -0.19700
C913        C  0.75891961  0.40502314  0.20818334    -0.24900
C914        C  0.78954617  0.41870691  0.18603730     0.27700
H915        H  0.76669015  0.34847676  0.12542149     0.13500
N916        N  0.70758618  0.31493026  0.16551495    -0.82200
H917        H  0.75647481  0.42098841  0.23086953     0.18400
N918        N  0.81801016  0.45312165  0.19452246    -0.80800
H919        H  0.71772420  0.29868112  0.16950739     0.34000
H920        H  0.69941036  0.31257751  0.13580149     0.38500
H921        H  0.81177316  0.46465338  0.21774170     0.34000
H922        H  0.83835454  0.45042277  0.20491491     0.30600
H923        H  0.85017505  0.35595358  0.14310003     0.34000
H924        H  0.83478629  0.37038016  0.17927924     0.30600
H925        H  0.85553024  0.49883090  0.06895988     0.38500
H926        H  0.87038917  0.48407908  0.03265801     0.34000
C927        C  0.63031423  0.37208208  0.20356797    -0.19800
C928        C  0.64795402  0.39495467  0.17164334     0.36500
C929        C  0.63164461  0.40897819  0.14930795    -0.25700
C930        C  0.59798423  0.40072392  0.15855597     0.02900
C931        C  0.57999481  0.37727988  0.19009327     0.27700
C932        C  0.59623859  0.36285330  0.21197612    -0.24900
N933        N  0.68280418  0.40485671  0.16264361    -0.82200
H934        H  0.64544533  0.42668906  0.12485407     0.13500
C935        C  0.58198731  0.41694249  0.13505156     0.02900
N936        N  0.54556368  0.36867805  0.20011560    -0.80800
H937        H  0.58241229  0.34462319  0.23598578     0.18300
C938        C  0.55145834  0.39551421  0.11399399    -0.25700
C939        C  0.53578358  0.40980556  0.09075275     0.36400
C940        C  0.55090149  0.44658704  0.08886577    -0.19700
C941        C  0.58159152  0.46793784  0.11008523    -0.24900
C942        C  0.59716445  0.45349543  0.13328479     0.27700
H943        H  0.54015624  0.36744048  0.11515204     0.13500
N944        N  0.50501482  0.38700595  0.06854751    -0.82200
H945        H  0.59334519  0.49605551  0.10896512     0.18400
N946        N  0.62817441  0.47574765  0.15536846    -0.80800
H947        H  0.49687172  0.36083123  0.07419734     0.34000
H948        H  0.51126857  0.39117154  0.03811371     0.38500
H949        H  0.63611766  0.50201331  0.15083355     0.34000
H950        H  0.62239132  0.47069049  0.18582963     0.30600
H951        H  0.53597805  0.35100430  0.22396920     0.34000
H952        H  0.54685431  0.39152660  0.21015653     0.30600
H953        H  0.68374913  0.39798228  0.13294355     0.38500
H954        H  0.69814699  0.43200227  0.16507403     0.34000
C955        C  0.62788910  0.27232409  0.29773254    -0.19800
C956        C  0.64582759  0.26528603  0.32726016     0.36500
C957        C  0.62823419  0.23415355  0.34937594    -0.25700
C958        C  0.59325459  0.21019565  0.34242842     0.02900
C959        C  0.57508127  0.21760099  0.31372813     0.27700
C960        C  0.59259475  0.24876070  0.29172739    -0.24900
N961        N  0.68195965  0.28919601  0.33381155    -0.82200
H962        H  0.64189793  0.22820246  0.37167404     0.13500
C963        C  0.57613780  0.17722019  0.36526314     0.02900
N964        N  0.53897407  0.19352695  0.30722820    -0.80800
H965        H  0.57880714  0.25458529  0.26947135     0.18300
C966        C  0.55986997  0.17574318  0.40149851    -0.25700
C967        C  0.54460453  0.14526263  0.42494011     0.36400
C968        C  0.54594736  0.11582402  0.41177085    -0.19700
C969        C  0.56150497  0.11720179  0.37483098    -0.24900
C970        C  0.57682519  0.14774184  0.35153154     0.27700
H971        H  0.55931053  0.19855340  0.41156146     0.13500
N972        N  0.52756850  0.14403844  0.46181382    -0.82200
H973        H  0.56255745  0.09469724  0.36463859     0.18400
N974        N  0.59390604  0.14933226  0.31455915    -0.80800
H975        H  0.52917453  0.16792480  0.46722931     0.34000
H976        H  0.50139689  0.12549834  0.45836561     0.38500
H977        H  0.59261241  0.12560808  0.30904941     0.34000
H978        H  0.58045526  0.15281711  0.29133539     0.30600
H979        H  0.52936736  0.20315207  0.28544266     0.34000
H980        H  0.53630129  0.17048266  0.29567879     0.30600
H981        H  0.69504581  0.28969588  0.30777274     0.38500
H982        H  0.69119571  0.28018659  0.35671900     0.34000
C983        C  0.73363799  0.37296860  0.29298760    -0.19800
C984        C  0.74189217  0.40006319  0.32045285     0.36500
C985        C  0.77290956  0.41471848  0.34182957    -0.25700
C986        C  0.79578791  0.40269422  0.33602306     0.02900
C987        C  0.78777019  0.37570201  0.30843599     0.27700
C988        C  0.75654108  0.36086152  0.28731926    -0.24900
N989        N  0.71922218  0.41329379  0.32595837    -0.82200
H990        H  0.77917042  0.43551785  0.36306707     0.13500
C991        C  0.82749125  0.41770925  0.36020054     0.02900
N992        N  0.81126255  0.36339482  0.30230474    -0.80800
H993        H  0.75004925  0.33990988  0.26623222     0.18300
C994        C  0.82719987  0.40085553  0.39565558    -0.25700
C995        C  0.85662334  0.41438080  0.41997843     0.36400
C996        C  0.88687428  0.44553254  0.40845407    -0.19700
C997        C  0.88713546  0.46206862  0.37250407    -0.24900
C998        C  0.85759014  0.44850853  0.34831383     0.27700
H999        H  0.80386980  0.37704183  0.40429713     0.13500
N1000       N  0.85599287  0.39636932  0.45597523    -0.82200
H1001       H  0.91024728  0.48599966  0.36367003     0.18400
N1002       N  0.85776845  0.46609069  0.31214726    -0.80800
H1003       H  0.83168917  0.37412886  0.46021624     0.34000
H1004       H  0.87329939  0.38760674  0.45213202     0.38500
H1005       H  0.88182319  0.48866880  0.30794019     0.34000
H1006       H  0.85418465  0.44955769  0.28809619     0.30600
H1007       H  0.80133224  0.34319906  0.28124263     0.34000
H1008       H  0.83385668  0.38390865  0.28991978     0.30600
H1009       H  0.71220434  0.41051488  0.35616120     0.38500
H1010       H  0.73283970  0.43993879  0.31915033     0.34000
C1011       C  0.55219225  0.44845771  0.40857282    -0.19800
C1012       C  0.53837629  0.43213274  0.37135086     0.36500
C1013       C  0.55505096  0.41808959  0.34940188    -0.25700
C1014       C  0.58503477  0.41999152  0.36397931     0.02900
C1015       C  0.59891401  0.43626204  0.40096059     0.27700
C1016       C  0.58226602  0.45020705  0.42300228    -0.24900
N1017       N  0.50720263  0.42926613  0.35635237    -0.82200
H1018       H  0.54456155  0.40538641  0.32093512     0.13500
C1019       C  0.60159633  0.40458482  0.34031613     0.02900
N1020       N  0.63004829  0.43885830  0.41568329    -0.80800
H1021       H  0.59304314  0.46286321  0.45140589     0.18300
C1022       C  0.62856082  0.42590177  0.31420171    -0.25700
C1023       C  0.64517647  0.41239487  0.29151600     0.36400
C1024       C  0.63405124  0.37641820  0.29470074    -0.19700
C1025       C  0.60739436  0.35529436  0.32137002    -0.24900
C1026       C  0.59097830  0.36903223  0.34422115     0.27700
H1027       H  0.63699028  0.45337767  0.31176224     0.13500
N1028       N  0.67376179  0.43619215  0.26684614    -0.82200
H1029       H  0.59895094  0.32780848  0.32376386     0.18400
N1030       N  0.56328212  0.34701813  0.37095182    -0.80800
H1031       H  0.66406770  0.44439443  0.24359616     0.34000
H1032       H  0.68627425  0.42437911  0.25394382     0.38500
H1033       H  0.55830223  0.32140349  0.36989823     0.34000
H1034       H  0.57143206  0.35594951  0.40010904     0.30600
H1035       H  0.63717395  0.45208055  0.44306152     0.34000
H1036       H  0.62484425  0.41355277  0.42133779     0.30600
H1037       H  0.48727544  0.41316852  0.37599517     0.38500
H1038       H  0.50072805  0.41679975  0.32850346     0.34000
C1039       C  0.93563907  0.05240820  0.91044129    -0.19800
C1040       C  0.90466816  0.04965292  0.92413419     0.36500
C1041       C  0.88927776  0.06457392  0.90146129    -0.25700
C1042       C  0.90413548  0.08198476  0.86555621     0.02900
C1043       C  0.93469478  0.08444709  0.85152989     0.27700
C1044       C  0.95006384  0.06940024  0.87400577    -0.24900
N1045       N  0.88880847  0.03148734  0.96074024    -0.82200
H1046       H  0.86566145  0.06274629  0.91180062     0.13500
C1047       C  0.88777087  0.09812527  0.84307356     0.02900
N1048       N  0.95033059  0.10291530  0.81500961    -0.80800
H1049       H  0.97383307  0.07166687  0.86353056     0.18300
C1050       C  0.89869516  0.13327703  0.84997706    -0.25700
C1051       C  0.88525877  0.15019404  0.82747863     0.36400
C1052       C  0.86052103  0.13140588  0.79759254    -0.19700
C1053       C  0.84870671  0.09585020  0.79179969    -0.24900
C1054       C  0.86221939  0.07900061  0.81422133     0.27700
H1055       H  0.91825620  0.14765546  0.87242959     0.13500
N1056       N  0.89733988  0.18652193  0.83404922    -0.82200
H1057       H  0.82912633  0.08134791  0.76941014     0.18400
N1058       N  0.85016451  0.04263318  0.80790846    -0.80800
H1059       H  0.91518791  0.19633023  0.85749224     0.34000
H1060       H  0.91059377  0.20006610  0.80832549     0.38500
H1061       H  0.83096259  0.03229194  0.78595945     0.34000
H1062       H  0.87074188  0.04073916  0.79666304     0.30600
H1063       H  0.97304368  0.10285861  0.80918391     0.34000
H1064       H  0.93343664  0.08931822  0.79151117     0.30600
H1065       H  0.88109670  0.00523339  0.95660535     0.38500
H1066       H  0.86643071  0.03217178  0.96665787     0.34000
C1067       C  0.86514068  0.23568671  0.79271829    -0.19800
C1068       C  0.84648893  0.24417094  0.81937108     0.36500
C1069       C  0.86368449  0.27533283  0.84119358    -0.25700
C1070       C  0.89933626  0.29815341  0.83676775     0.02900
C1071       C  0.91819033  0.28930943  0.81052845     0.27700
C1072       C  0.90080322  0.25810494  0.78864204    -0.24900
N1073       N  0.80992542  0.22178215  0.82320325    -0.82200
H1074       H  0.84912461  0.28187354  0.86151864     0.13500
C1075       C  0.91639194  0.33132885  0.85952590     0.02900
N1076       N  0.95475481  0.31219420  0.80592589    -0.80800
H1077       H  0.91503514  0.25121197  0.76823073     0.18300
C1078       C  0.94326951  0.33822759  0.88599107    -0.25700
C1079       C  0.95901773  0.36875586  0.90926901     0.36400
C1080       C  0.94760657  0.39274507  0.90574433    -0.19700
C1081       C  0.92149192  0.38639918  0.87845114    -0.24900
C1082       C  0.90564969  0.35581755  0.85531405     0.27700
H1083       H  0.95154430  0.31942054  0.88896288     0.13500
N1084       N  0.98711115  0.37594119  0.93555372    -0.82200
H1085       H  0.91298118  0.40504845  0.87582527     0.18400
N1086       N  0.87864993  0.34942202  0.82764906    -0.80800
H1087       H  0.99362010  0.35666164  0.93276394     0.34000
H1088       H  0.97857922  0.37441044  0.96497840     0.38500
H1089       H  0.87365514  0.36986290  0.82837305     0.34000
H1090       H  0.88752156  0.34912884  0.79881291     0.30600
H1091       H  0.96472147  0.30162690  0.78580555     0.34000
H1092       H  0.95885445  0.33543738  0.79319063     0.30600
H1093       H  0.79833373  0.23616378  0.81567043     0.38500
H1094       H  0.80431251  0.21432113  0.85320963     0.34000
C1095       C  0.60944457  0.06318896  0.91140439    -0.19800
C1096       C  0.63934255  0.09480697  0.92275400     0.36500
C1097       C  0.66877756  0.10877618  0.89827716    -0.25700
C1098       C  0.66908280  0.09145222  0.86347948     0.02900
C1099       C  0.63960593  0.05980718  0.85236019     0.27700
C1100       C  0.60989001  0.04620440  0.87618849    -0.24900
N1101       N  0.63951741  0.11312476  0.95828533    -0.82200
H1102       H  0.69175007  0.13306878  0.90652328     0.13500
C1103       C  0.70077038  0.10642451  0.83926601     0.02900
N1104       N  0.64033301  0.04120998  0.81754805    -0.80800
H1105       H  0.58718179  0.02177461  0.86772492     0.18300
C1106       C  0.72558954  0.09758990  0.84843677    -0.25700
C1107       C  0.75580492  0.11089880  0.82569285     0.36400
C1108       C  0.76127872  0.13340788  0.79330511    -0.19700
C1109       C  0.73663378  0.14272016  0.78465455    -0.24900
C1110       C  0.70624213  0.12926016  0.80726246     0.27700
H1111       H  0.72133857  0.08009364  0.87317925     0.13500
N1112       N  0.78051241  0.10091530  0.83503739    -0.82200
H1113       H  0.74130499  0.16083481  0.76050544     0.18400
N1114       N  0.68125237  0.13915568  0.79842725    -0.80800
H1115       H  0.76822409  0.07371705  0.83333073     0.34000
H1116       H  0.78867431  0.10834671  0.86456199     0.38500
H1117       H  0.68950431  0.15659477  0.77435064     0.34000
H1118       H  0.65861401  0.11681053  0.78911859     0.30600
H1119       H  0.61675100  0.01793543  0.81403691     0.34000
H1120       H  0.64340930  0.05647413  0.79239533     0.30600
H1121       H  0.63971850  0.09878989  0.98292480     0.38500
H1122       H  0.66236886  0.13734258  0.96011113     0.34000
C1123       C  0.93956785  0.05320437  0.59329442    -0.19800
C1124       C  0.91083246  0.03252524  0.61824713     0.36500
C1125       C  0.89624310  0.04857136  0.64041402    -0.25700
C1126       C  0.90977884  0.08471243  0.63825837     0.02900
C1127       C  0.93860310  0.10539463  0.61374504     0.27700
C1128       C  0.95334470  0.08948589  0.59182479    -0.24900
N1129       N  0.89682151  0.99550181  0.62143025    -0.82200
H1130       H  0.87435521  0.03290331  0.65975155     0.13500
C1131       C  0.89360612  0.10068932  0.66185256     0.02900
N1132       N  0.95239913  0.14240163  0.61069511    -0.80800
H1133       H  0.97521753  0.10548569  0.57261789     0.18300
C1134       C  0.91365685  0.12699949  0.68960861    -0.25700
C1135       C  0.89960260  0.14354709  0.71160478     0.36400
C1136       C  0.86449306  0.13259917  0.70670407    -0.19700
C1137       C  0.84447599  0.10650637  0.67883919    -0.24900
C1138       C  0.85873913  0.09050126  0.65613057     0.27700
H1139       H  0.94046389  0.13484949  0.69377014     0.13500
N1140       N  0.92087014  0.17165780  0.73845811    -0.82200
H1141       H  0.81759810  0.09852605  0.67498185     0.18400
N1142       N  0.83813848  0.06424071  0.62702862    -0.80800
H1143       H  0.92215055  0.19425852  0.72750382     0.34000
H1144       H  0.94606870  0.17644812  0.73863452     0.38500
H1145       H  0.81302071  0.05970005  0.62666442     0.34000
H1146       H  0.84867800  0.07408259  0.59880662     0.30600
H1147       H  0.97370911  0.15386886  0.59152412     0.34000
H1148       H  0.93352552  0.14612951  0.59754404     0.30600
H1149       H  0.91560188  0.99169718  0.63471477     0.38500
H1150       H  0.87552427  0.98421170  0.64062879     0.34000
C1151       C  0.94519086  0.38825035  0.58346434    -0.19800
C1152       C  0.96454767  0.38265768  0.61260560     0.36500
C1153       C  0.94878586  0.35129575  0.63454482    -0.25700
C1154       C  0.91417025  0.32572415  0.62805441     0.02900
C1155       C  0.89505682  0.33099293  0.59852700     0.27700
C1156       C  0.91066647  0.36231314  0.57675654    -0.24900
N1157       N  0.49577471  0.41072480  0.62497064    -0.82200
H1158       H  0.96322635  0.34707790  0.65748991     0.13500
C1159       C  0.89765387  0.29406278  0.65342020     0.02900
N1160       N  0.85987476  0.30441675  0.59081290    -0.80800
H1161       H  0.89588549  0.36636543  0.55411573     0.18300
C1162       C  0.87060828  0.28853267  0.67886570    -0.25700
C1163       C  0.85389103  0.25867395  0.70294699     0.36400
C1164       C  0.86463395  0.23412150  0.70200340    -0.17700
C1165       C  0.89133133  0.23931866  0.67618833    -0.24900
C1166       C  0.90806819  0.26919775  0.65182767     0.27700
H1167       H  0.86235341  0.30745781  0.67987411     0.13500
N1168       N  0.82550651  0.25294666  0.72759575    -0.82200
H1169       H  0.89923249  0.22012327  0.67527900     0.18400
N1170       N  0.93532262  0.27429813  0.62528584    -0.80800
H1171       H  0.83410778  0.27433510  0.74681931     0.34000
H1172       H  0.80652293  0.25224671  0.70905927     0.38500
H1173       H  0.93989706  0.25364529  0.62784248     0.34000
H1174       H  0.92688560  0.27364769  0.59597786     0.30600
H1175       H  0.84938369  0.31236419  0.56819947     0.34000
H1176       H  0.85994120  0.28246014  0.57994525     0.30600
H1177       H  0.49506973  0.43229230  0.63601905     0.38500
H1178       H  0.50590037  0.40262968  0.64785412     0.34000
C1179       C  0.60932313  0.05984402  0.58568355    -0.19800
C1180       C  0.61676386  0.08523565  0.61551505     0.36500
C1181       C  0.64787001  0.09940806  0.63692522    -0.25700
C1182       C  0.67151856  0.08858030  0.62938399     0.02900
C1183       C  0.66421559  0.06332473  0.59960260     0.27700
C1184       C  0.63306762  0.04900605  0.57827493    -0.24900
N1185       N  0.59242615  0.09594223  0.62463764    -0.82200
H1186       H  0.65350949  0.11859196  0.66013733     0.13500
C1187       C  0.70355148  0.10352683  0.65349416     0.02900
N1188       N  0.68863241  0.05262610  0.59092538    -0.80800
H1189       H  0.62756629  0.02971345  0.55524968     0.18300
C1190       C  0.70917956  0.08148403  0.67821285    -0.25700
C1191       C  0.73867289  0.09467100  0.70224643     0.36400
C1192       C  0.76295553  0.13098544  0.70184146    -0.19700
C1193       C  0.75766728  0.15288801  0.67653606    -0.24900
C1194       C  0.72814886  0.13954308  0.65236870     0.27700
H1195       H  0.69041181  0.05374646  0.67886624     0.13500
N1196       N  0.74339342  0.07034383  0.72560195    -0.82200
H1197       H  0.77644565  0.18063509  0.67616323     0.18400
N1198       N  0.72298743  0.16234347  0.62670234    -0.80800
H1199       H  0.72442530  0.06028029  0.74784971     0.34000
H1200       H  0.76726594  0.08231249  0.73993515     0.38500
H1201       H  0.74335475  0.18811200  0.62961973     0.34000
H1202       H  0.72349357  0.15493040  0.59712661     0.30600
H1203       H  0.67935571  0.03381350  0.56824317     0.34000
H1204       H  0.71093375  0.07437691  0.57976062     0.30600
H1205       H  0.57032535  0.07425363  0.63626844     0.38500
H1206       H  0.60196306  0.11492799  0.64713062     0.34000
C1207       C  0.82983338  0.66497123  0.71065107     0.45600
H1208       H  0.83039169  0.66459853  0.67738581    -0.03400
C1209       C  0.82865352  0.66613344  0.78864990     0.45600
H1210       H  0.82825068  0.66677900  0.82189538    -0.03400
C1211       C  0.84751599  0.70182181  0.72845027    -0.17100
C1212       C  0.79335153  0.64629985  0.72833446    -0.16900
C1213       C  0.84778953  0.64753058  0.73051233    -0.17300
C1214       C  0.84715358  0.70248138  0.76947529    -0.17200
C1215       C  0.79270458  0.64713485  0.76946375    -0.16800
C1216       C  0.84687212  0.64784577  0.77162819    -0.17100
C1217       C  0.66441968  0.83988521  0.28866773     0.45600
H1218       H  0.66500226  0.84075730  0.32192359    -0.03400
C1219       C  0.66289389  0.83785836  0.21070398     0.45600
H1220       H  0.66218337  0.83696039  0.17745466    -0.03400
C1221       C  0.70020908  0.85653460  0.26916481    -0.17100
C1222       C  0.64427614  0.80270601  0.27142737    -0.16900
C1223       C  0.64771527  0.85902159  0.26991579    -0.17300
C1224       C  0.69936539  0.85533629  0.22808083    -0.17200
C1225       C  0.64377153  0.80176186  0.23028773    -0.16800
C1226       C  0.64659859  0.85764255  0.22883526    -0.17100
O1227       O  0.93004280  0.99146880  0.05095757    -0.78400
C1228       C  0.53437340  0.58342587  0.06234486     0.82700
O1229       O  0.97184200  0.52734321  0.91556556    -0.79500
O1230       O  0.57990299  0.54763779  0.97427764    -0.81000
O1231       O  0.50497307  0.94535648  0.05290586    -0.80800
O1232       O  0.92831580  0.94077980  0.05040324    -0.79400
Zn1233     Zn  0.97227936  0.52514292  0.01731315     1.55700
O1234       O  0.55501062  0.99561368  0.05313334    -0.80800
Cd1235     Cd  0.97233601  0.95345118  0.01806162     1.59700
Cd1236     Cd  0.99800168  0.50400411  0.93791379     1.59600
O1237       O  0.95895905  0.91937378  0.97059049    -0.80800
O1238       O  0.99696591  0.50307919  0.99788378    -1.91300
Cd1239     Cd  0.54450916  0.52819935  0.02037258     1.59900
O1240       O  0.97417415  0.95303923  0.91607715    -0.80700
O1241       O  0.55314954  0.57050757  0.05430177    -0.79400
C1242       C  0.95491174  0.53904687  0.93351497     0.83100
C1243       C  0.91558970  0.95938864  0.06064087     0.82800
O1244       O  0.50335679  0.56912301  0.05011775    -0.78300
C1245       C  0.53650133  0.96359986  0.06316898     0.83600
O1246       O  0.95334473  0.53945475  0.97155216    -0.78400
C1247       C  0.96119514  0.92316311  0.93271852     0.83700
C1248       C  0.57730585  0.54658475  0.93627959     0.84100
O1249       O  0.54817739  0.53116778  0.91860445    -0.80900
O1250       O  0.56287810  0.51129005  0.55030105    -0.78400
C1251       C  0.95824687  0.92108916  0.56319985     0.82700
O1252       O  0.52192506  0.98025999  0.41575180    -0.79500
O1253       O  0.91304146  0.95747237  0.47278630    -0.81000
O1254       O  0.98832591  0.55766501  0.55734238    -0.80800
O1255       O  0.56448720  0.56196710  0.55142561    -0.79400
Zn1256     Zn  0.52172880  0.97979418  0.51767833     1.55700
O1257       O  0.93878067  0.50685040  0.55590711    -0.80800
Cd1258     Cd  0.52066636  0.55056826  0.51959409     1.59700
Cd1259     Cd  0.99760059  0.50373492  0.43859516     1.59600
O1260       O  0.53433895  0.58546832  0.47296269    -0.80800
O1261       O  0.99783345  0.50221122  0.49853862    -1.91300
Cd1262     Cd  0.94768320  0.97530444  0.51967402     1.59900
O1263       O  0.51918485  0.55290308  0.41766752    -0.80700
O1264       O  0.93872400  0.93241902  0.55236120    -0.79400
C1265       C  0.53746214  0.96644588  0.43242190     0.83100
C1266       C  0.57711553  0.54314635  0.56103481     0.82800
O1267       O  0.98994011  0.93641935  0.55315823    -0.78300
C1268       C  0.95698616  0.53831035  0.56803186     0.83600
O1269       O  0.53904672  0.96484233  0.47041086    -0.78400
C1270       C  0.53218919  0.58250308  0.43498520     0.83700
C1271       C  0.91632457  0.95929413  0.43483489     0.84100
O1272       O  0.94587050  0.97513487  0.41809977    -0.80900
C1273       C  0.54954289  0.61627988  0.08574118    -0.19800
C1274       C  0.52900857  0.62632829  0.10728965     0.36500
C1275       C  0.54508305  0.65772811  0.12901851    -0.25700
C1276       C  0.58105509  0.67925706  0.12959232     0.02900
C1277       C  0.60150894  0.66980410  0.10731439     0.27700
C1278       C  0.58558479  0.63829980  0.08595901    -0.24900
N1279       N  0.99136311  0.60438030  0.10600975    -0.82200
H1280       H  0.52954296  0.66510225  0.14641176     0.13500
C1281       C  0.59703309  0.71089209  0.15502262     0.02900
N1282       N  0.63835556  0.69237418  0.10633319    -0.80800
H1283       H  0.60147831  0.63116143  0.06893133     0.18300
C1284       C  0.62030514  0.71425330  0.18494819    -0.25700
C1285       C  0.63591314  0.74365886  0.20976363     0.36400
C1286       C  0.62725698  0.76967337  0.20558814    -0.19700
C1287       C  0.60418324  0.76648637  0.17550766    -0.24900
C1288       C  0.58915462  0.73743562  0.14987920     0.27700
H1289       H  0.62661073  0.69402952  0.18885143     0.13500
N1290       N  0.66136889  0.74752005  0.23815180    -0.82200
H1291       H  0.59810080  0.78689518  0.17186481     0.18400
N1292       N  0.56637320  0.73497922  0.11834123    -0.80800
H1293       H  0.65004028  0.72586586  0.25722259     0.34000
H1294       H  0.68123244  0.74711505  0.22256717     0.38500
H1295       H  0.56330102  0.75667851  0.11866840     0.34000
H1296       H  0.57818312  0.73575457  0.09111366     0.30600
H1297       H  0.64965290  0.68158343  0.08861790     0.34000
H1298       H  0.64374692  0.71566232  0.09246280     0.30600
H1299       H  0.98426496  0.58102586  0.12091491     0.38500
H1300       H  0.98014893  0.61628459  0.12184753     0.34000
C1301       C  0.88317283  0.94336357  0.08418852    -0.19800
C1302       C  0.86126606  0.95730737  0.08358798     0.36500
C1303       C  0.83115025  0.94181617  0.10668457    -0.25700
C1304       C  0.82234319  0.91267406  0.13071692     0.02900
C1305       C  0.84376875  0.89824444  0.13111007     0.27700
C1306       C  0.87385005  0.91357939  0.10757380    -0.24900
N1307       N  0.86907255  0.98682185  0.05903926    -0.82200
H1308       H  0.81448084  0.95266421  0.10587710     0.13500
C1309       C  0.79090796  0.89812729  0.15581073     0.02900
N1310       N  0.83518203  0.86849732  0.15588190    -0.80800
H1311       H  0.89045452  0.90267017  0.10820660     0.18300
C1312       C  0.76439926  0.86336710  0.15038832    -0.25700
C1313       C  0.73429076  0.84906999  0.17355683     0.36400
C1314       C  0.73042254  0.86989175  0.20231051    -0.19700
C1315       C  0.75666333  0.90478943  0.20729861    -0.24900
C1316       C  0.78711684  0.91900603  0.18472948     0.27700
H1317       H  0.76714019  0.84725872  0.12813727     0.13500
N1318       N  0.70811501  0.81317148  0.16854556    -0.82200
H1319       H  0.75348411  0.92084868  0.22921027     0.18400
N1320       N  0.81441605  0.95439721  0.19135639    -0.80800
H1321       H  0.71920977  0.79792037  0.17369945     0.34000
H1322       H  0.69974144  0.80947914  0.13881321     0.38500
H1323       H  0.80749451  0.96617243  0.21360066     0.34000
H1324       H  0.83564916  0.95354821  0.20232223     0.30600
H1325       H  0.85356154  0.86105359  0.15269278     0.34000
H1326       H  0.83627667  0.87610850  0.18571824     0.30600
H1327       H  0.87075917  0.00654593  0.07755613     0.38500
H1328       H  0.84857978  0.97947489  0.03919860     0.34000
C1329       C  0.63023378  0.87250785  0.20374817    -0.19800
C1330       C  0.64843041  0.89556720  0.17218879     0.36500
C1331       C  0.63260595  0.90991795  0.14955764    -0.25700
C1332       C  0.59892132  0.90186470  0.15825192     0.02900
C1333       C  0.58050998  0.87852616  0.18971513     0.27700
C1334       C  0.59623826  0.86370283  0.21181834    -0.24900
N1335       N  0.68332450  0.90526195  0.16382736    -0.82200
H1336       H  0.64675789  0.92762859  0.12523664     0.13500
C1337       C  0.58320954  0.91795989  0.13407782     0.02900
N1338       N  0.54615273  0.87038363  0.19937321    -0.80800
H1339       H  0.58204632  0.84542428  0.23565561     0.18300
C1340       C  0.55278739  0.89636124  0.11292253    -0.25700
C1341       C  0.53715711  0.91045946  0.08931497     0.36400
C1342       C  0.55216704  0.94719954  0.08722942    -0.19700
C1343       C  0.58290470  0.96873941  0.10829125    -0.24900
C1344       C  0.59848123  0.95449644  0.13179626     0.27700
H1345       H  0.54149574  0.86829777  0.11437297     0.13500
N1346       N  0.50651915  0.88751560  0.06699168    -0.82200
H1347       H  0.59463889  0.99684647  0.10690550     0.18400
N1348       N  0.62954134  0.97692886  0.15370993    -0.80800
H1349       H  0.49848212  0.86138081  0.07273905     0.34000
H1350       H  0.51290052  0.89166831  0.03658968     0.38500
H1351       H  0.63756626  0.00316170  0.14872903     0.34000
H1352       H  0.62379410  0.97223524  0.18421643     0.30600
H1353       H  0.53622714  0.85273677  0.22323106     0.34000
H1354       H  0.54771190  0.89339398  0.20927549     0.30600
H1355       H  0.68462672  0.89859531  0.13413688     0.38500
H1356       H  0.69880597  0.93236914  0.16659772     0.34000
C1357       C  0.62624797  0.77129980  0.29718607    -0.19800
C1358       C  0.64422342  0.76419480  0.32660479     0.36500
C1359       C  0.62673312  0.73291367  0.34841160    -0.25700
C1360       C  0.59181227  0.70889837  0.34131820     0.02900
C1361       C  0.57351112  0.71646663  0.31297147     0.27700
C1362       C  0.59096790  0.74771778  0.29112517    -0.24900
N1363       N  0.68032433  0.78814472  0.33326803    -0.82200
H1364       H  0.64044351  0.72688187  0.37056354     0.13500
C1365       C  0.57487267  0.67583968  0.36391093     0.02900
N1366       N  0.53730709  0.69257980  0.30684900    -0.80800
H1367       H  0.57714339  0.75363599  0.26901777     0.18300
C1368       C  0.55993866  0.67462192  0.40101948    -0.25700
C1369       C  0.54508724  0.64416434  0.42441955     0.36400
C1370       C  0.54554819  0.61446367  0.41033042    -0.19700
C1371       C  0.55982022  0.61560944  0.37256433    -0.24900
C1372       C  0.57473009  0.64615871  0.34929113     0.27700
H1373       H  0.56011195  0.69763603  0.41180010     0.13500
N1374       N  0.52939545  0.64326377  0.46222753    -0.82200
H1375       H  0.56023492  0.59293625  0.36168474     0.18400
N1376       N  0.59071080  0.64759146  0.31152027    -0.80800
H1377       H  0.53162909  0.66734833  0.46826734     0.34000
H1378       H  0.50303618  0.62506083  0.45978114     0.38500
H1379       H  0.58897781  0.62374144  0.30544672     0.34000
H1380       H  0.57679162  0.65129424  0.28906801     0.30600
H1381       H  0.52760170  0.70238114  0.28539898     0.34000
H1382       H  0.53433250  0.66949065  0.29505057     0.30600
H1383       H  0.69344166  0.78867030  0.30725020     0.38500
H1384       H  0.68955423  0.77913478  0.35618227     0.34000
C1385       C  0.73227170  0.87129286  0.29299309    -0.19800
C1386       C  0.74105906  0.89858200  0.32031213     0.36500
C1387       C  0.77207649  0.91278857  0.34158538    -0.25700
C1388       C  0.79433492  0.89996905  0.33603419     0.02900
C1389       C  0.78554752  0.87241344  0.30898158     0.27700
C1390       C  0.75450048  0.85833109  0.28758564    -0.24900
N1391       N  0.71890416  0.91241256  0.32585523    -0.82200
H1392       H  0.77880591  0.93384593  0.36260782     0.13500
C1393       C  0.82599159  0.91466267  0.36025699     0.02900
N1394       N  0.80777601  0.85841764  0.30408174    -0.80800
H1395       H  0.74747684  0.83709132  0.26674531     0.18300
C1396       C  0.82427167  0.90050722  0.39814759    -0.25700
C1397       C  0.85344478  0.91423540  0.42292554     0.36400
C1398       C  0.88499501  0.94296138  0.40938053    -0.19700
C1399       C  0.88656211  0.95680812  0.37105242    -0.24900
C1400       C  0.85725826  0.94305782  0.34642735     0.27700
H1401       H  0.79997602  0.87865279  0.40838076     0.13500
N1402       N  0.85112234  0.89887743  0.46152094    -0.82200
H1403       H  0.91054486  0.97894094  0.36060321     0.18400
N1404       N  0.85881198  0.95841066  0.30803329    -0.80800
H1405       H  0.82598886  0.87843226  0.46703419     0.34000
H1406       H  0.86666905  0.88780239  0.46078164     0.38500
H1407       H  0.88358641  0.97958561  0.30267912     0.34000
H1408       H  0.85415254  0.93984148  0.28603173     0.30600
H1409       H  0.79715075  0.83774710  0.28363244     0.34000
H1410       H  0.83087808  0.87790469  0.29150116     0.30600
H1411       H  0.71194431  0.90976673  0.35607069     0.38500
H1412       H  0.73291803  0.93904900  0.31904217     0.34000
C1413       C  0.55447134  0.95209984  0.40736333    -0.19800
C1414       C  0.54112021  0.93647814  0.36969482     0.36500
C1415       C  0.55788557  0.92256055  0.34766896    -0.25700
C1416       C  0.58756715  0.92395953  0.36250247     0.02900
C1417       C  0.60126399  0.93996025  0.39965604     0.27700
C1418       C  0.58450695  0.95375133  0.42180865    -0.24900
N1419       N  0.51022542  0.93403274  0.35436491    -0.82200
H1420       H  0.54755045  0.91011434  0.31904672     0.13500
C1421       C  0.60344137  0.90749804  0.33939480     0.02900
N1422       N  0.63214960  0.94215638  0.41462389    -0.80800
H1423       H  0.59503756  0.96599183  0.45045984     0.18300
C1424       C  0.63153765  0.92811885  0.31432031    -0.25700
C1425       C  0.64717108  0.91338585  0.29191789     0.36400
C1426       C  0.63411234  0.87696060  0.29460860    -0.19700
C1427       C  0.60639137  0.85652829  0.32032903    -0.24900
C1428       C  0.59079940  0.87143912  0.34266986     0.27700
H1429       H  0.64148100  0.95594130  0.31228890     0.13500
N1430       N  0.67663409  0.93635165  0.26786293    -0.82200
H1431       H  0.59643855  0.82869495  0.32228168     0.18400
N1432       N  0.56190936  0.85013298  0.36828554    -0.80800
H1433       H  0.66813492  0.94579411  0.24462708     0.34000
H1434       H  0.68804184  0.92347001  0.25485298     0.38500
H1435       H  0.55546494  0.82404539  0.36690671     0.34000
H1436       H  0.56953821  0.85834418  0.39775868     0.30600
H1437       H  0.63913358  0.95514580  0.44215020     0.34000
H1438       H  0.62668135  0.91672597  0.42004238     0.30600
H1439       H  0.48997857  0.91756314  0.37344848     0.38500
H1440       H  0.50415113  0.92216546  0.32617341     0.34000
C1441       C  0.93665775  0.55261627  0.90969382    -0.19800
C1442       C  0.90536792  0.54922402  0.92317945     0.36500
C1443       C  0.88967120  0.56377654  0.90045010    -0.25700
C1444       C  0.90446492  0.58131292  0.86460278     0.02900
C1445       C  0.93519909  0.58417445  0.85059586     0.27700
C1446       C  0.95096234  0.56962425  0.87322186    -0.24900
N1447       N  0.88946065  0.53071956  0.95959121    -0.82200
H1448       H  0.86587441  0.56158398  0.91071410     0.13500
C1449       C  0.88797733  0.59740720  0.84235149     0.02900
N1450       N  0.95055648  0.60248209  0.81390873    -0.80800
H1451       H  0.97489462  0.57223928  0.86280176     0.18300
C1452       C  0.89922339  0.63265410  0.84903976    -0.25700
C1453       C  0.88553137  0.64951369  0.82694657     0.36400
C1454       C  0.86032245  0.63059959  0.79756978    -0.19700
C1455       C  0.84822496  0.59497162  0.79195820    -0.24900
C1456       C  0.86189049  0.57813565  0.81411234     0.27700
H1457       H  0.91917488  0.64712417  0.87106256     0.13500
N1458       N  0.89780819  0.68589427  0.83340732    -0.82200
H1459       H  0.82831256  0.58041757  0.76992112     0.18400
N1460       N  0.84948535  0.54166005  0.80812634    -0.80800
H1461       H  0.91596960  0.69576777  0.85652650     0.34000
H1462       H  0.91076631  0.69928418  0.80749475     0.38500
H1463       H  0.82990016  0.53122490  0.78663472     0.34000
H1464       H  0.86977429  0.53949280  0.79642635     0.30600
H1465       H  0.97339588  0.60268213  0.80805626     0.34000
H1466       H  0.93361932  0.58857692  0.79055618     0.30600
H1467       H  0.88218463  0.50460417  0.95524083     0.38500
H1468       H  0.86681400  0.53092655  0.96536304     0.34000
C1469       C  0.86488719  0.73485980  0.79359174    -0.19800
C1470       C  0.84634826  0.74383520  0.81984741     0.36500
C1471       C  0.86372799  0.77511087  0.84153587    -0.25700
C1472       C  0.89952854  0.79733680  0.83781899     0.02900
C1473       C  0.91831130  0.78795704  0.81220335     0.27700
C1474       C  0.90068706  0.75689225  0.78998981    -0.24900
N1475       N  0.80973217  0.72178862  0.82348707    -0.82200
H1476       H  0.84922780  0.78215524  0.86131775     0.13500
C1477       C  0.91677837  0.83052902  0.86058350     0.02900
N1478       N  0.95506522  0.81011266  0.80867795    -0.80800
H1479       H  0.91486363  0.74974050  0.76982196     0.18300
C1480       C  0.94112126  0.83580645  0.89001845    -0.25700
C1481       C  0.95639240  0.86611740  0.91377257     0.36400
C1482       C  0.94737013  0.89174979  0.90737469    -0.19700
C1483       C  0.92401530  0.88701505  0.87692598    -0.24900
C1484       C  0.90844475  0.85652626  0.85358258     0.27700
H1485       H  0.94762203  0.81584409  0.89500421     0.13500
N1486       N  0.98162128  0.87134476  0.94351125    -0.82200
H1487       H  0.91729763  0.90683029  0.87201247     0.18400
N1488       N  0.88404733  0.85168724  0.82293037    -0.80800
H1489       H  0.98699494  0.85117162  0.94239612     0.34000
H1490       H  0.97073133  0.86962802  0.97164278     0.38500
H1491       H  0.88056163  0.87311068  0.82178587     0.34000
H1492       H  0.89460747  0.85081433  0.79539526     0.30600
H1493       H  0.96498332  0.79922336  0.78894712     0.34000
H1494       H  0.96007562  0.83368206  0.79595003     0.30600
H1495       H  0.79842676  0.73638744  0.81570571     0.38500
H1496       H  0.80394580  0.71447109  0.85350999     0.34000
C1497       C  0.60900494  0.56270795  0.91181674    -0.19800
C1498       C  0.63788049  0.59570118  0.92130704     0.36500
C1499       C  0.66743421  0.60947985  0.89702266    -0.25700
C1500       C  0.66875225  0.59068756  0.86417049     0.02900
C1501       C  0.64007109  0.55789871  0.85462952     0.27700
C1502       C  0.61031142  0.54433719  0.87838288    -0.24900
N1503       N  0.63674608  0.61557798  0.95456669    -0.82200
H1504       H  0.68967324  0.63480250  0.90387059     0.13500
C1505       C  0.70045447  0.60557897  0.83994000     0.02900
N1506       N  0.64153969  0.53839701  0.82118465    -0.80800
H1507       H  0.58822571  0.51899466  0.87123749     0.18300
C1508       C  0.72467805  0.59569980  0.84811575    -0.25700
C1509       C  0.75484896  0.60896118  0.82527356     0.36400
C1510       C  0.76087000  0.63244863  0.79382630    -0.19700
C1511       C  0.73668874  0.64252926  0.78589914    -0.24900
C1512       C  0.70630873  0.62906867  0.80855195     0.27700
H1513       H  0.72000639  0.57746164  0.87215714     0.13500
N1514       N  0.77890237  0.59786295  0.83340759    -0.82200
H1515       H  0.74164497  0.66107987  0.76215408     0.18400
N1516       N  0.68146251  0.63921781  0.80006118    -0.80800
H1517       H  0.76602167  0.57069673  0.83059663     0.34000
H1518       H  0.78713033  0.60427178  0.86307320     0.38500
H1519       H  0.68983234  0.65692156  0.77623752     0.34000
H1520       H  0.65882709  0.61696715  0.79050403     0.30600
H1521       H  0.61841986  0.51451621  0.81853257     0.34000
H1522       H  0.64400084  0.55252059  0.79516229     0.30600
H1523       H  0.63712067  0.60304851  0.98083006     0.38500
H1524       H  0.65901569  0.64033354  0.95528509     0.34000
C1525       C  0.94133168  0.55355734  0.59410375    -0.19800
C1526       C  0.91164557  0.53268404  0.61765143     0.36500
C1527       C  0.89691109  0.54868457  0.63971195    -0.25700
C1528       C  0.91120566  0.58500725  0.63892838     0.02900
C1529       C  0.94119109  0.60590159  0.61613860     0.27700
C1530       C  0.95603582  0.59001583  0.59430049    -0.24900
N1531       N  0.89673369  0.49546420  0.61947113    -0.82200
H1532       H  0.87424633  0.53278877  0.65786830     0.13500
C1533       C  0.89461893  0.60090457  0.66215579     0.02900
N1534       N  0.95606243  0.64313992  0.61461822    -0.80800
H1535       H  0.97872754  0.60625660  0.57634474     0.18300
C1536       C  0.91415414  0.62695607  0.69041404    -0.25700
C1537       C  0.89975388  0.64335822  0.71209500     0.36400
C1538       C  0.86465739  0.63233739  0.70672340    -0.19700
C1539       C  0.84514817  0.60655603  0.67830446    -0.24900
C1540       C  0.85984446  0.59087009  0.65568126     0.27700
H1541       H  0.94087333  0.63475405  0.69523959     0.13500
N1542       N  0.92071610  0.67147390  0.73906951    -0.82200
H1543       H  0.81831519  0.59855245  0.67394365     0.18400
N1544       N  0.83975796  0.56508282  0.62590755    -0.80800
H1545       H  0.92199585  0.69403439  0.72796259     0.34000
H1546       H  0.94594641  0.67636940  0.73960843     0.38500
H1547       H  0.81467452  0.56061161  0.62498769     0.34000
H1548       H  0.85084009  0.57534415  0.59800620     0.30600
H1549       H  0.97817303  0.65474543  0.59670430     0.34000
H1550       H  0.93821448  0.64804519  0.60076971     0.30600
H1551       H  0.91467828  0.49066849  0.63327111     0.38500
H1552       H  0.87480351  0.48404438  0.63768400     0.34000
C1553       C  0.94312322  0.88874059  0.58723282    -0.19800
C1554       C  0.96201005  0.88361117  0.61739428     0.36500
C1555       C  0.94626668  0.85208476  0.63897088    -0.25700
C1556       C  0.91209155  0.82599285  0.63116763     0.02900
C1557       C  0.89328581  0.83102372  0.60105346     0.27700
C1558       C  0.90890082  0.86247107  0.57958833    -0.24900
N1559       N  0.49877163  0.90992038  0.62281131    -0.82200
H1560       H  0.96037917  0.84805253  0.66250489     0.13500
C1561       C  0.89572795  0.79390134  0.65564804     0.02900
N1562       N  0.85847339  0.80403354  0.59233816    -0.80800
H1563       H  0.89444899  0.86627727  0.55629122     0.18300
C1564       C  0.86825961  0.78745406  0.68083543    -0.25700
C1565       C  0.85182684  0.75721793  0.70427609     0.36400
C1566       C  0.86340833  0.73335182  0.70304413    -0.17700
C1567       C  0.89036119  0.73933134  0.67724754    -0.24900
C1568       C  0.90669887  0.76950783  0.65336723     0.27700
H1569       H  0.85947419  0.80594814  0.68214621     0.13500
N1570       N  0.82289004  0.75039596  0.72855651    -0.82200
H1571       H  0.89877340  0.72054380  0.67600522     0.18400
N1572       N  0.93410740  0.77540459  0.62662203    -0.80800
H1573       H  0.83074345  0.77148119  0.74807420     0.34000
H1574       H  0.80386388  0.74935033  0.70980123     0.38500
H1575       H  0.93905057  0.75496915  0.62860352     0.34000
H1576       H  0.92560081  0.77501168  0.59740835     0.30600
H1577       H  0.84817413  0.81187881  0.56939618     0.34000
H1578       H  0.85926295  0.78244667  0.58152956     0.30600
H1579       H  0.49867816  0.93163168  0.63447616     0.38500
H1580       H  0.50923197  0.90152396  0.64498052     0.34000
C1581       C  0.60922451  0.55858635  0.58505343    -0.19800
C1582       C  0.61707218  0.58482852  0.61391616     0.36500
C1583       C  0.64792857  0.59877437  0.63578642    -0.25700
C1584       C  0.67099995  0.58699651  0.62958810     0.02900
C1585       C  0.66334448  0.56096385  0.60070400     0.27700
C1586       C  0.63238740  0.54679543  0.57898035    -0.24900
N1587       N  0.59341285  0.59670323  0.62155892    -0.82200
H1588       H  0.65385720  0.61860990  0.65825321     0.13500
C1589       C  0.70294343  0.60202632  0.65391272     0.02900
N1590       N  0.68724448  0.54936223  0.59328096    -0.80800
H1591       H  0.62660153  0.52688156  0.55667299     0.18300
C1592       C  0.70804615  0.58030293  0.67980198    -0.25700
C1593       C  0.73758448  0.59360217  0.70379166     0.36400
C1594       C  0.76234153  0.62979732  0.70242201    -0.19700
C1595       C  0.75751378  0.65135643  0.67600200    -0.24900
C1596       C  0.72807892  0.63783298  0.65164440     0.27700
H1597       H  0.68891697  0.55269447  0.68125793     0.13500
N1598       N  0.74194447  0.56942497  0.72790540    -0.82200
H1599       H  0.77665273  0.67897788  0.67477710     0.18400
N1600       N  0.72358320  0.66022907  0.62454101    -0.80800
H1601       H  0.72323559  0.56020127  0.75044423     0.34000
H1602       H  0.76600567  0.58125345  0.74177632     0.38500
H1603       H  0.74432791  0.68587806  0.62663506     0.34000
H1604       H  0.72393212  0.65178681  0.59542870     0.30600
H1605       H  0.67779321  0.53010427  0.57109739     0.34000
H1606       H  0.70986983  0.57060105  0.58192692     0.30600
H1607       H  0.57090311  0.57567916  0.63344354     0.38500
H1608       H  0.60321364  0.61624319  0.64341759     0.34000
loop_ 
_geom_bond_atom_site_label_1 
_geom_bond_atom_site_label_2 
_geom_bond_distance 
_geom_bond_site_symmetry_2 
_ccdc_geom_bond_type 
C1            H2   1.112       .  S
C1            C7   1.533       .  S
C1            C6   1.532       .  S
C1            C5   1.531       .  S
C3            H4   1.111       .  S
C3            C9   1.537       .  S
C3            C8   1.533       .  S
C3           C10   1.535       .  S
C5            C8   1.370       .  D
C5          C360   1.476       .  S
C6            C9   1.375       .  D
C6          C388   1.482       .  S
C7           C10   1.374       .  D
C7          C332   1.480       .  S
C8          C263   1.479       .  S
C9          C304   1.482       .  S
C10         C248   1.483       .  S
C11          H12   1.111       .  S
C11          C17   1.533       .  S
C11          C16   1.536       .  S
C11          C15   1.535       .  S
C13          H14   1.111       .  S
C13          C19   1.531       .  S
C13          C18   1.532       .  S
C13          C20   1.533       .  S
C15          C18   1.373       .  D
C15         C179   1.479       .  S
C16          C19   1.374       .  D
C16         C151   1.483       .  S
C17          C20   1.373       .  D
C17         C220   1.480       .  S
C18         C108   1.481       .  S
C19          C80   1.478       .  S
C20         C123   1.481       .  S
O21          C37   1.272       .  A
O21        Zn429   2.002       .  S
C22          O38   1.274       .  A
C22          O35   1.274       .  A
C22          C67   1.482       .  S
O23          C36   1.276       .  A
O23         Cd30   2.079       .  S
O24          C42   1.273       .  A
O24         Cd33   2.061   1_556  S
O25          C39   1.273       .  A
O25        Cd833   2.056   1_455  S
O26          C37   1.275       .  A
O26         Cd29   2.072       .  S
Zn27         O40   2.008   1_554  S
Zn27        O423   2.001   1_545  S
Zn27        O842   2.020       .  S
Zn27         O32   1.938   1_554  S
O28          C39   1.277       .  A
O28        Cd435   2.083       .  S
Cd29         O31   2.061   1_554  S
Cd29        O829   2.061       .  S
Cd29        O434   1.995   1_554  S
Cd30        O436   2.078   1_545  S
Cd30        O847   2.075       .  S
Cd30         O32   2.004       .  S
O31          C41   1.273       .  A
O32        Cd431   1.997   1_546  S
O32        Cd837   1.996   1_556  S
Cd33         O35   2.055       .  S
Cd33        O430   2.077   1_545  S
Cd33        O836   1.996   1_454  S
O34          C41   1.275       .  A
O34        Cd432   2.073       .  S
C36          O40   1.273       .  A
C36         C235   1.481       .  S
C37          C95   1.486       .  S
O38        Zn831   2.017   1_455  S
C39         C136   1.489       .  S
C41         C276   1.475       .  S
C42          O43   1.276       .  A
C42         C291   1.480       .  S
O43        Cd834   2.076   1_455  S
O44          C60   1.274       .  A
O44        Zn452   2.020   1_545  S
C45          O61   1.275       .  A
C45          O58   1.273       .  A
C45         C347   1.477       .  S
O46          C59   1.275       .  A
O46       Cd1259   2.076   1_455  S
O47          C65   1.274       .  A
O47         Cd56   2.064       .  S
O48          C62   1.275       .  A
O48        Cd856   2.067       .  S
O49          C60   1.275       .  A
O49         Cd52   2.074       .  S
Zn50         O63   2.014       .  S
Zn50        O446   2.011       .  S
Zn50        O865   2.024   1_455  S
Zn50       O1261   1.945   1_455  S
O51          C62   1.275       .  A
O51        Cd458   2.074   1_545  S
Cd52         O54   2.066       .  S
Cd52        O852   2.063   1_455  S
Cd52        O859   1.996   1_455  S
Cd53       O1252   2.075   1_545  S
Cd53        O861   2.072       .  S
Cd53        O468   2.071   1_545  S
Cd53         O55   2.003       .  S
O54          C64   1.275       .  A
O55       Zn1256   1.947   1_545  S
O55        Cd856   1.998       .  S
O55        Cd458   1.999   1_545  S
Cd56         O58   2.054       .  S
Cd56        O453   2.071       .  S
Cd56        O457   1.997       .  S
O57          C64   1.276       .  A
O57        Cd857   2.075   1_455  S
C59          O63   1.274       .  A
C59         C207   1.482       .  S
C60         C375   1.483       .  S
O61        Zn854   2.024       .  S
C62         C319   1.485       .  S
C64         C164   1.481       .  S
C65          O66   1.275       .  A
C65         C192   1.484       .  S
O66        Cd455   2.073       .  S
C67          C68   1.415       .  A
C67          C72   1.406       .  A
C68          C69   1.405       .  A
C68         N877   1.438   1_455  S
C69          C70   1.402       .  A
C69          H74   1.084       .  S
C70          C75   1.478       .  S
C70          C71   1.408       .  A
C71          C72   1.401       .  A
C71          N76   1.438       .  S
C72          H77   1.084       .  S
N73         C872   1.438       .  S
N73          H93   1.046       .  S
N73          H94   1.046       .  S
C75          C78   1.402       .  A
C75          C82   1.410       .  A
N76          H91   1.046       .  S
N76          H92   1.046       .  S
C78          C79   1.398       .  A
C78          H83   1.084       .  S
C79          C80   1.408       .  A
C79          N84   1.432       .  S
C80          C81   1.402       .  A
C81          C82   1.404       .  A
C81          H85   1.084       .  S
C82          N86   1.437       .  S
N84          H87   1.046       .  S
N84          H88   1.045       .  S
N86          H89   1.046       .  S
N86          H90   1.046       .  S
C95          C96   1.418       .  A
C95         C100   1.406       .  A
C96          C97   1.404       .  A
C96         N101   1.439       .  S
C97          C98   1.401       .  A
C97         H102   1.084       .  S
C98         C103   1.483       .  S
C98          C99   1.410       .  A
C99         C100   1.405       .  A
C99         N104   1.438       .  S
C100        H105   1.083       .  S
N101        H121   1.045       .  S
N101        H122   1.046       .  S
C103        C106   1.404       .  A
C103        C110   1.412       .  A
N104        H119   1.046       .  S
N104        H120   1.046       .  S
C106        C107   1.402       .  A
C106        H111   1.084       .  S
C107        C108   1.407       .  A
C107        N112   1.432       .  S
C108        C109   1.402       .  A
C109        C110   1.403       .  A
C109        H113   1.084       .  S
C110        N114   1.438       .  S
N112        H115   1.045       .  S
N112        H116   1.045       .  S
N114        H117   1.046       .  S
N114        H118   1.046       .  S
C123        C124   1.406       .  A
C123        C128   1.402       .  A
C124        C125   1.401       .  A
C124        N129   1.432       .  S
C125        C126   1.404       .  A
C125        H130   1.084       .  S
C126        C131   1.483       .  S
C126        C127   1.412       .  A
C127        C128   1.404       .  A
C127        N132   1.438       .  S
C128        H133   1.083       .  S
N129        H149   1.045       .  S
N129        H150   1.045       .  S
C131        C134   1.400       .  A
C131        C138   1.409       .  A
N132        H147   1.046       .  S
N132        H148   1.046       .  S
C134        C135   1.404       .  A
C134        H139   1.084       .  S
C135        C136   1.419       .  A
C135        N140   1.438       .  S
C136        C137   1.407       .  A
C137        C138   1.406       .  A
C137        H141   1.083       .  S
C138        N142   1.438       .  S
N140        H143   1.046   1_455  S
N140        H144   1.046       .  S
N142        H145   1.046       .  S
N142        H146   1.046       .  S
C151        C152   1.410       .  A
C151        C156   1.404       .  A
C152        C153   1.405       .  A
C152        N157   1.438       .  S
C153        C154   1.401       .  A
C153        H158   1.084       .  S
C154        C159   1.476       .  S
C154        C155   1.407       .  A
C155        C156   1.404       .  A
C155        N160   1.437       .  S
C156        H161   1.084       .  S
N157        H177   1.045       .  S
N157        H178   1.046       .  S
C159        C162   1.399       .  A
C159        C166   1.408       .  A
N160        H175   1.046       .  S
N160        H176   1.045       .  S
C162        C163   1.406       .  A
C162        H167   1.084       .  S
C163        C164   1.415       .  A
C163        N168   1.438       .  S
C164        C165   1.405       .  A
C165        C166   1.405       .  A
C165        H169   1.084       .  S
C166        N170   1.438       .  S
N168        H171   1.046       .  S
N168        H172   1.046   1_455  S
N170        H173   1.046       .  S
N170        H174   1.045       .  S
C179        C180   1.406       .  A
C179        C184   1.403       .  A
C180        C181   1.400       .  A
C180        N185   1.431       .  S
C181        C182   1.400       .  A
C181        H186   1.084       .  S
C182        C187   1.473       .  S
C182        C183   1.409       .  A
C183        C184   1.404       .  A
C183        N188   1.438       .  S
C184        H189   1.084       .  S
N185        H205   1.045       .  S
N185        H206   1.045       .  S
C187        C190   1.399       .  A
C187        C194   1.407       .  A
N188        H203   1.046       .  S
N188        H204   1.045       .  S
C190        C191   1.404       .  A
C190        H195   1.084       .  S
C191        C192   1.416       .  A
C191        N196   1.438       .  S
C192        C193   1.407       .  A
C193        C194   1.405       .  A
C193        H197   1.083       .  S
C194        N198   1.438       .  S
N196        H199   1.046       .  S
N196        H200   1.046       .  S
N198        H201   1.046       .  S
N198        H202   1.045       .  S
C207        C208   1.415       .  A
C207        C212   1.406       .  A
C208        C209   1.407       .  A
C208        N213   1.438       .  S
C209        C210   1.400       .  A
C209        H214   1.084       .  S
C210        C215   1.476       .  S
C210        C211   1.407       .  A
C211        C212   1.404       .  A
C211        N216   1.438       .  S
C212        H217   1.084       .  S
N213        H233   1.046   1_455  S
N213        H234   1.046       .  S
C215        C218   1.400       .  A
C215        C222   1.408       .  A
N216        H231   1.046       .  S
N216        H232   1.045       .  S
C218        C219   1.400       .  A
C218        H223   1.084       .  S
C219        C220   1.418       .  A
C219        N224   1.438       .  S
C220        C221   1.402       .  A
C221        C222   1.404       .  A
C221        H225   1.084       .  S
C222        N226   1.438       .  S
N224        H227   1.045       .  S
N224        H228   1.043       .  S
N226        H229   1.046       .  S
N226        H230   1.045       .  S
C235        C236   1.416       .  A
C235        C240   1.405       .  A
C236        C237   1.405       .  A
C236        N241   1.438       .  S
C237        C238   1.399       .  A
C237        H242   1.084       .  S
C238        C243   1.476       .  S
C238        C239   1.408       .  A
C239        C240   1.406       .  A
C239        N244   1.438       .  S
C240        H245   1.084       .  S
N241        H261   1.046       .  S
N241        H262   1.046       .  S
C243        C246   1.401       .  A
C243        C250   1.408       .  A
N244        H259   1.046       .  S
N244        H260   1.045       .  S
C246        C247   1.405       .  A
C246        H251   1.084       .  S
C247        C248   1.410       .  A
C247        N252   1.437       .  S
C248        C249   1.404       .  A
C249        C250   1.404       .  A
C249        H253   1.084       .  S
C250        N254   1.437       .  S
N252        H255   1.046       .  S
N252        H256   1.044       .  S
N254        H257   1.046       .  S
N254        H258   1.045       .  S
C263        C264   1.405       .  A
C263        C268   1.403       .  A
C264        C265   1.401       .  A
C264        N269   1.432       .  S
C265        C266   1.403       .  A
C265        H270   1.084       .  S
C266        C271   1.477       .  S
C266        C267   1.409       .  A
C267        C268   1.405       .  A
C267        N272   1.437       .  S
C268        H273   1.084       .  S
N269        H289   1.046       .  S
N269        H290   1.045       .  S
C271        C274   1.401       .  A
C271        C278   1.408       .  A
N272        H287   1.046       .  S
N272        H288   1.045       .  S
C274        C275   1.405       .  A
C274        H279   1.084       .  S
C275        C276   1.414       .  A
C275        N280   1.438       .  S
C276        C277   1.403       .  A
C277        C278   1.404       .  A
C277        H281   1.084       .  S
C278        N282   1.438       .  S
N280        H283   1.046       .  S
N280        H284   1.045       .  S
N282        H285   1.046       .  S
N282        H286   1.046       .  S
C291        C292   1.416       .  A
C291        C296   1.405       .  A
C292        C293   1.406       .  A
C292        N297   1.438       .  S
C293        C294   1.399       .  A
C293        H298   1.084       .  S
C294        C299   1.474       .  S
C294        C295   1.407       .  A
C295        C296   1.403       .  A
C295        N300   1.438       .  S
C296        H301   1.084       .  S
N297        H317   1.045       .  S
N297        H318   1.046       .  S
C299        C302   1.400       .  A
C299        C306   1.408       .  A
N300        H315   1.046       .  S
N300        H316   1.045       .  S
C302        C303   1.401       .  A
C302        H307   1.084       .  S
C303        C304   1.408       .  A
C303        N308   1.432       .  S
C304        C305   1.404       .  A
C305        C306   1.404       .  A
C305        H309   1.083       .  S
C306        N310   1.438       .  S
N308        H311   1.045       .  S
N308        H312   1.046       .  S
N310        H313   1.046       .  S
N310        H314   1.045       .  S
C319        C320   1.415       .  A
C319        C324   1.406       .  A
C320        C321   1.407       .  A
C320        N325   1.438   1_545  S
C321        C322   1.403       .  A
C321        H326   1.084       .  S
C322        C327   1.484       .  S
C322        C323   1.410       .  A
C323        C324   1.403       .  A
C323        N328   1.438       .  S
C324        H329   1.084       .  S
N325        H345   1.046       .  S
N325        H346   1.046       .  S
C327        C330   1.403       .  A
C327        C334   1.412       .  A
N328        H343   1.046       .  S
N328        H344   1.046       .  S
C330        C331   1.403       .  A
C330        H335   1.084       .  S
C331        C332   1.410       .  A
C331        N336   1.437       .  S
C332        C333   1.401       .  A
C333        C334   1.405       .  A
C333        H337   1.084       .  S
C334        N338   1.437       .  S
N336        H339   1.045       .  S
N336        H340   1.045       .  S
N338        H341   1.046       .  S
N338        H342   1.046       .  S
C347        C348   1.412       .  A
C347        C352   1.405       .  A
C348        C349   1.405       .  A
C348       N1157   1.438       .  S
C349        C350   1.402       .  A
C349        H354   1.084       .  S
C350        C355   1.477       .  S
C350        C351   1.408       .  A
C351        C352   1.402       .  A
C351        N356   1.438       .  S
C352        H357   1.084       .  S
N353       C1152   1.438       .  S
N353        H373   1.046       .  S
N353        H374   1.046   1_655  S
C355        C358   1.402       .  A
C355        C362   1.410       .  A
N356        H371   1.046       .  S
N356        H372   1.046       .  S
C358        C359   1.399       .  A
C358        H363   1.084       .  S
C359        C360   1.407       .  A
C359        N364   1.432       .  S
C360        C361   1.400       .  A
C361        C362   1.405       .  A
C361        H365   1.083       .  S
C362        N366   1.437       .  S
N364        H367   1.046       .  S
N364        H368   1.045       .  S
N366        H369   1.046       .  S
N366        H370   1.046       .  S
C375        C376   1.414       .  A
C375        C380   1.406       .  A
C376        C377   1.407       .  A
C376        N381   1.438       .  S
C377        C378   1.403       .  A
C377        H382   1.084       .  S
C378        C383   1.485       .  S
C378        C379   1.410       .  A
C379        C380   1.406       .  A
C379        N384   1.438       .  S
C380        H385   1.084       .  S
N381        H401   1.046       .  S
N381        H402   1.046       .  S
C383        C386   1.403       .  A
C383        C390   1.410       .  A
N384        H399   1.046       .  S
N384        H400   1.046       .  S
C386        C387   1.402       .  A
C386        H391   1.084       .  S
C387        C388   1.417       .  A
C387        N392   1.438       .  S
C388        C389   1.402       .  A
C389        C390   1.405       .  A
C389        H393   1.084       .  S
C390        N394   1.437       .  S
N392        H395   1.046       .  S
N392        H396   1.043       .  S
N394        H397   1.046       .  S
N394        H398   1.046       .  S
C403        H404   1.112       .  S
C403        C409   1.533       .  S
C403        C408   1.533       .  S
C403        C407   1.532       .  S
C405        H406   1.111       .  S
C405        C411   1.533       .  S
C405        C410   1.534       .  S
C405        C412   1.534       .  S
C407        C410   1.372       .  D
C407        C762   1.478       .  S
C408        C411   1.372       .  D
C408        C790   1.481       .  S
C409        C412   1.375       .  D
C409        C734   1.481       .  S
C410        C665   1.481       .  S
C411        C706   1.478       .  S
C412        C650   1.483       .  S
C413        H414   1.111       .  S
C413        C419   1.532       .  S
C413        C418   1.535       .  S
C413        C417   1.534       .  S
C415        H416   1.111       .  S
C415        C421   1.532       .  S
C415        C420   1.534       .  S
C415        C422   1.535       .  S
C417        C420   1.373       .  D
C417        C581   1.480       .  S
C418        C421   1.374       .  D
C418        C553   1.480       .  S
C419        C422   1.373       .  D
C419        C622   1.482       .  S
C420        C510   1.482       .  S
C421        C482   1.482       .  S
C422        C525   1.480       .  S
O423        C439   1.272       .  A
C424        O440   1.274       .  A
C424        O437   1.275       .  A
C424        C469   1.488       .  S
O425        C438   1.275       .  A
O425       Cd432   2.076       .  S
O426        C444   1.275       .  A
O426       Cd435   2.068   1_556  S
O427        C441   1.273       .  A
O427      Cd1235   2.057   1_455  S
O428        C439   1.275       .  A
O428       Cd431   2.072       .  S
Zn429      O1244   2.013       .  S
Zn429       O442   2.002   1_554  S
Zn429       O434   1.936   1_554  S
O430        C441   1.276       .  A
Cd431      O1231   2.062       .  S
Cd431       O433   2.065   1_554  S
Cd432      O1249   2.071       .  S
Cd432       O434   2.003       .  S
O433        C443   1.274       .  A
O434      Cd1239   1.996   1_556  S
Cd435       O437   2.066       .  S
Cd435      O1238   1.998   1_454  S
O436        C443   1.275       .  A
C438        O442   1.272       .  A
C438        C637   1.478       .  S
C439        C497   1.486       .  S
O440      Zn1233   2.020   1_455  S
C441        C538   1.486       .  S
C443        C678   1.473       .  S
C444        O445   1.276       .  A
C444        C693   1.479       .  S
O445      Cd1236   2.070   1_455  S
O446        C462   1.274       .  A
C447        O463   1.276       .  A
C447        O460   1.274       .  A
C447        C749   1.479       .  S
O448        C461   1.275       .  A
O448       Cd857   2.074   1_465  S
O449        C467   1.274       .  A
O449       Cd458   2.066       .  S
O450        C464   1.274       .  A
O450      Cd1258   2.061       .  S
O451        C462   1.275       .  A
O451       Cd454   2.071       .  S
Zn452      O1267   2.026   1_455  S
Zn452       O465   2.020       .  S
Zn452       O859   1.947   1_465  S
O453        C464   1.274       .  A
Cd454      O1254   2.064   1_455  S
Cd454       O456   2.068       .  S
Cd454      O1261   1.997   1_455  S
Cd455       O850   2.075       .  S
Cd455      O1263   2.074       .  S
Cd455       O457   2.004       .  S
O456        C466   1.274       .  A
O457       Zn854   1.945       .  S
O457      Cd1258   1.993       .  S
Cd458       O460   2.057       .  S
O459        C466   1.275       .  A
O459      Cd1259   2.071   1_455  S
C461        O465   1.275       .  A
C461        C609   1.483       .  S
C462        C777   1.483       .  S
O463      Zn1256   2.028       .  S
C464        C721   1.482       .  S
C466        C566   1.479       .  S
C467        O468   1.275       .  A
C467        C594   1.484       .  S
C469        C470   1.417       .  A
C469        C474   1.406       .  A
C470        C471   1.407       .  A
C470       N1279   1.438   1_455  S
C471        C472   1.403       .  A
C471        H476   1.084       .  S
C472        C477   1.486       .  S
C472        C473   1.410       .  A
C473        C474   1.403       .  A
C473        N478   1.438       .  S
C474        H479   1.083       .  S
N475       C1274   1.438       .  S
N475        H495   1.046       .  S
N475        H496   1.046       .  S
C477        C480   1.404       .  A
C477        C484   1.413       .  A
N478        H493   1.046       .  S
N478        H494   1.046       .  S
C480        C481   1.400       .  A
C480        H485   1.084       .  S
C481        C482   1.407       .  A
C481        N486   1.431       .  S
C482        C483   1.402       .  A
C483        C484   1.406       .  A
C483        H487   1.084       .  S
C484        N488   1.437       .  S
N486        H489   1.046       .  S
N486        H490   1.045       .  S
N488        H491   1.046       .  S
N488        H492   1.046       .  S
C497        C498   1.418       .  A
C497        C502   1.407       .  A
C498        C499   1.403       .  A
C498        N503   1.439       .  S
C499        C500   1.400       .  A
C499        H504   1.084       .  S
C500        C505   1.482       .  S
C500        C501   1.409       .  A
C501        C502   1.405       .  A
C501        N506   1.438       .  S
C502        H507   1.083       .  S
N503        H523   1.045   1_565  S
N503        H524   1.046       .  S
C505        C508   1.403       .  A
C505        C512   1.412       .  A
N506        H521   1.046       .  S
N506        H522   1.046       .  S
C508        C509   1.402       .  A
C508        H513   1.084       .  S
C509        C510   1.407       .  A
C509        N514   1.432       .  S
C510        C511   1.402       .  A
C511        C512   1.403       .  A
C511        H515   1.084       .  S
C512        N516   1.438       .  S
N514        H517   1.045       .  S
N514        H518   1.045       .  S
N516        H519   1.046       .  S
N516        H520   1.046       .  S
C525        C526   1.406       .  A
C525        C530   1.403       .  A
C526        C527   1.401       .  A
C526        N531   1.432       .  S
C527        C528   1.403       .  A
C527        H532   1.084       .  S
C528        C533   1.481       .  S
C528        C529   1.411       .  A
C529        C530   1.404       .  A
C529        N534   1.438       .  S
C530        H535   1.083       .  S
N531        H551   1.045       .  S
N531        H552   1.045       .  S
C533        C536   1.400       .  A
C533        C540   1.409       .  A
N534        H549   1.046       .  S
N534        H550   1.046       .  S
C536        C537   1.404       .  A
C536        H541   1.084       .  S
C537        C538   1.418       .  A
C537        N542   1.438       .  S
C538        C539   1.407       .  A
C539        C540   1.406       .  A
C539        H543   1.083       .  S
C540        N544   1.438       .  S
N542        H545   1.046   1_455  S
N542        H546   1.046       .  S
N544        H547   1.045   1_565  S
N544        H548   1.046       .  S
C553        C554   1.410       .  A
C553        C558   1.403       .  A
C554        C555   1.404       .  A
C554        N559   1.438       .  S
C555        C556   1.401       .  A
C555        H560   1.084       .  S
C556        C561   1.474       .  S
C556        C557   1.407       .  A
C557        C558   1.403       .  A
C557        N562   1.437       .  S
C558        H563   1.084       .  S
N559        H579   1.045       .  S
N559        H580   1.046       .  S
C561        C564   1.400       .  A
C561        C568   1.407       .  A
N562        H577   1.046       .  S
N562        H578   1.045       .  S
C564        C565   1.406       .  A
C564        H569   1.084       .  S
C565        C566   1.415       .  A
C565        N570   1.438       .  S
C566        C567   1.405       .  A
C567        C568   1.404       .  A
C567        H571   1.084       .  S
C568        N572   1.438       .  S
N570        H573   1.046       .  S
N570        H574   1.046   1_455  S
N572        H575   1.046       .  S
N572        H576   1.045       .  S
C581        C582   1.406       .  A
C581        C586   1.403       .  A
C582        C583   1.400       .  A
C582        N587   1.431       .  S
C583        C584   1.400       .  A
C583        H588   1.084       .  S
C584        C589   1.473       .  S
C584        C585   1.409       .  A
C585        C586   1.404       .  A
C585        N590   1.438       .  S
C586        H591   1.084       .  S
N587        H607   1.045       .  S
N587        H608   1.045       .  S
C589        C592   1.399       .  A
C589        C596   1.407       .  A
N590        H605   1.046       .  S
N590        H606   1.045       .  S
C592        C593   1.404       .  A
C592        H597   1.084       .  S
C593        C594   1.416       .  A
C593        N598   1.438       .  S
C594        C595   1.407       .  A
C595        C596   1.405       .  A
C595        H599   1.083       .  S
C596        N600   1.438       .  S
N598        H601   1.046       .  S
N598        H602   1.046       .  S
N600        H603   1.046       .  S
N600        H604   1.045       .  S
C609        C610   1.414       .  A
C609        C614   1.406       .  A
C610        C611   1.407       .  A
C610        N615   1.438       .  S
C611        C612   1.401       .  A
C611        H616   1.084       .  S
C612        C617   1.478       .  S
C612        C613   1.407       .  A
C613        C614   1.405       .  A
C613        N618   1.438       .  S
C614        H619   1.084       .  S
N615        H635   1.046   1_455  S
N615        H636   1.046       .  S
C617        C620   1.401       .  A
C617        C624   1.408       .  A
N618        H633   1.046       .  S
N618        H634   1.045       .  S
C620        C621   1.401       .  A
C620        H625   1.084       .  S
C621        C622   1.418       .  A
C621        N626   1.438       .  S
C622        C623   1.402       .  A
C623        C624   1.405       .  A
C623        H627   1.084       .  S
C624        N628   1.437       .  S
N626        H629   1.046       .  S
N626        H630   1.043       .  S
N628        H631   1.046       .  S
N628        H632   1.045       .  S
C637        C638   1.415       .  A
C637        C642   1.404       .  A
C638        C639   1.405       .  A
C638        N643   1.438       .  S
C639        C640   1.399       .  A
C639        H644   1.084       .  S
C640        C645   1.473       .  S
C640        C641   1.408       .  A
C641        C642   1.404       .  A
C641        N646   1.438       .  S
C642        H647   1.084       .  S
N643        H663   1.046       .  S
N643        H664   1.046       .  S
C645        C648   1.400       .  A
C645        C652   1.407       .  A
N646        H661   1.046       .  S
N646        H662   1.045       .  S
C648        C649   1.404       .  A
C648        H653   1.084       .  S
C649        C650   1.411       .  A
C649        N654   1.437       .  S
C650        C651   1.404       .  A
C651        C652   1.403       .  A
C651        H655   1.084       .  S
C652        N656   1.438       .  S
N654        H657   1.046       .  S
N654        H658   1.045       .  S
N656        H659   1.046       .  S
N656        H660   1.045       .  S
C665        C666   1.405       .  A
C665        C670   1.403       .  A
C666        C667   1.402       .  A
C666        N671   1.432       .  S
C667        C668   1.404       .  A
C667        H672   1.084       .  S
C668        C673   1.483       .  S
C668        C669   1.411       .  A
C669        C670   1.405       .  A
C669        N674   1.437       .  S
C670        H675   1.084       .  S
N671        H691   1.046       .  S
N671        H692   1.045       .  S
C673        C676   1.403       .  A
C673        C680   1.411       .  A
N674        H689   1.046       .  S
N674        H690   1.046       .  S
C676        C677   1.406       .  A
C676        H681   1.084       .  S
C677        C678   1.411       .  A
C677        N682   1.438       .  S
C678        C679   1.402       .  A
C679        C680   1.405       .  A
C679        H683   1.084       .  S
C680        N684   1.438       .  S
N682        H685   1.046       .  S
N682        H686   1.045       .  S
N684        H687   1.046       .  S
N684        H688   1.046       .  S
C693        C694   1.414       .  A
C693        C698   1.405       .  A
C694        C695   1.406       .  A
C694        N699   1.438       .  S
C695        C696   1.400       .  A
C695        H700   1.084       .  S
C696        C701   1.474       .  S
C696        C697   1.407       .  A
C697        C698   1.404       .  A
C697        N702   1.438       .  S
C698        H703   1.084       .  S
N699        H719   1.046       .  S
N699        H720   1.046       .  S
C701        C704   1.401       .  A
C701        C708   1.409       .  A
N702        H717   1.046       .  S
N702        H718   1.045       .  S
C704        C705   1.401       .  A
C704        H709   1.084       .  S
C705        C706   1.407       .  A
C705        N710   1.432       .  S
C706        C707   1.402       .  A
C707        C708   1.404       .  A
C707        H711   1.084       .  S
C708        N712   1.437       .  S
N710        H713   1.045       .  S
N710        H714   1.045       .  S
N712        H715   1.046       .  S
N712        H716   1.045       .  S
C721        C722   1.414       .  A
C721        C726   1.406       .  A
C722        C723   1.406       .  A
C722        N727   1.438       .  S
C723        C724   1.402       .  A
C723        H728   1.084       .  S
C724        C729   1.480       .  S
C724        C725   1.408       .  A
C725        C726   1.403       .  A
C725        N730   1.438       .  S
C726        H731   1.084       .  S
N727        H747   1.046       .  S
N727        H748   1.046       .  S
C729        C732   1.402       .  A
C729        C736   1.410       .  A
N730        H745   1.046       .  S
N730        H746   1.046       .  S
C732        C733   1.403       .  A
C732        H737   1.084       .  S
C733        C734   1.411       .  A
C733        N738   1.437       .  S
C734        C735   1.401       .  A
C735        C736   1.404       .  A
C735        H739   1.084       .  S
C736        N740   1.438       .  S
N738        H741   1.046       .  S
N738        H742   1.045       .  S
N740        H743   1.046       .  S
N740        H744   1.046       .  S
C749        C750   1.413       .  A
C749        C754   1.405       .  A
C750        C751   1.406       .  A
C750       N1559   1.438       .  S
C751        C752   1.402       .  A
C751        H756   1.084       .  S
C752        C757   1.478       .  S
C752        C753   1.407       .  A
C753        C754   1.402       .  A
C753        N758   1.438       .  S
C754        H759   1.084       .  S
N755       C1554   1.438       .  S
N755        H775   1.046       .  S
N755        H776   1.046   1_655  S
C757        C760   1.402       .  A
C757        C764   1.410       .  A
N758        H773   1.046       .  S
N758        H774   1.046       .  S
C760        C761   1.400       .  A
C760        H765   1.084       .  S
C761        C762   1.407       .  A
C761        N766   1.432       .  S
C762        C763   1.401       .  A
C763        C764   1.405       .  A
C763        H767   1.084       .  S
C764        N768   1.437       .  S
N766        H769   1.046       .  S
N766        H770   1.045       .  S
N768        H771   1.046       .  S
N768        H772   1.046       .  S
C777        C778   1.414       .  A
C777        C782   1.406       .  A
C778        C779   1.405       .  A
C778        N783   1.438       .  S
C779        C780   1.403       .  A
C779        H784   1.084       .  S
C780        C785   1.484       .  S
C780        C781   1.410       .  A
C781        C782   1.405       .  A
C781        N786   1.438       .  S
C782        H787   1.084       .  S
N783        H803   1.046       .  S
N783        H804   1.046       .  S
C785        C788   1.403       .  A
C785        C792   1.411       .  A
N786        H801   1.046       .  S
N786        H802   1.046       .  S
C788        C789   1.401       .  A
C788        H793   1.084       .  S
C789        C790   1.417       .  A
C789        N794   1.438       .  S
C790        C791   1.401       .  A
C791        C792   1.404       .  A
C791        H795   1.084       .  S
C792        N796   1.438       .  S
N794        H797   1.046       .  S
N794        H798   1.043       .  S
N796        H799   1.046       .  S
N796        H800   1.046       .  S
C805        H806   1.112       .  S
C805        C811   1.533       .  S
C805        C810   1.533       .  S
C805        C809   1.531       .  S
C807        H808   1.111       .  S
C807        C813   1.535       .  S
C807        C812   1.532       .  S
C807        C814   1.533       .  S
C809        C812   1.371       .  D
C809       C1164   1.479       .  S
C810        C813   1.375       .  D
C810       C1192   1.480       .  S
C811        C814   1.374       .  D
C811       C1136   1.479       .  S
C812       C1067   1.476       .  S
C813       C1108   1.482       .  S
C814       C1052   1.482       .  S
C815        H816   1.111       .  S
C815        C821   1.533       .  S
C815        C820   1.536       .  S
C815        C819   1.535       .  S
C817        H818   1.111       .  S
C817        C823   1.530       .  S
C817        C822   1.534       .  S
C817        C824   1.534       .  S
C819        C822   1.375       .  D
C819        C983   1.481       .  S
C820        C823   1.374       .  D
C820        C955   1.483       .  S
C821        C824   1.374       .  D
C821       C1024   1.483       .  S
C822        C912   1.486       .  S
C823        C884   1.479       .  S
C824        C927   1.482       .  S
O825        C841   1.273       .  A
O825      Zn1233   2.007       .  S
C826        O842   1.274       .  A
C826        O839   1.274       .  A
C826        C871   1.484       .  S
O827        C840   1.276       .  A
O827       Cd834   2.078       .  S
O828        C846   1.273       .  A
O828       Cd837   2.058   1_556  S
O829        C843   1.273       .  A
O830        C841   1.274       .  A
O830       Cd833   2.069       .  S
Zn831      O1227   2.006   1_545  S
Zn831       O844   2.006   1_554  S
Zn831       O836   1.939   1_554  S
O832        C843   1.276       .  A
O832      Cd1239   2.078       .  S
Cd833       O835   2.058   1_554  S
Cd833      O1238   1.995   1_554  S
Cd834      O1240   2.077   1_545  S
Cd834       O836   2.004       .  S
O835        C845   1.273       .  A
O836      Cd1235   1.994   1_546  S
Cd837      O1234   2.073   1_545  S
Cd837       O839   2.060       .  S
O838        C845   1.274       .  A
O838      Cd1236   2.071       .  S
C840        O844   1.273       .  A
C840       C1039   1.481       .  S
C841        C899   1.486       .  S
C843        C940   1.489       .  S
C845       C1080   1.469       .  S
C846        O847   1.276       .  A
C846       C1095   1.479       .  S
O848        C864   1.274       .  A
O848      Zn1256   2.017   1_545  S
C849        O865   1.275       .  A
C849        O862   1.274       .  A
C849       C1151   1.480       .  S
O850        C863   1.275       .  A
O851        C869   1.274       .  A
O851       Cd860   2.065       .  S
O852        C866   1.274       .  A
O853        C864   1.275       .  A
O853       Cd856   2.073       .  S
Zn854      O1250   2.021       .  S
Zn854       O867   2.016       .  S
O855        C866   1.274       .  A
O855      Cd1262   2.071   1_545  S
Cd856       O858   2.068       .  S
Cd857      O1272   2.073   1_545  S
Cd857       O859   2.003       .  S
O858        C868   1.275       .  A
O859      Cd1262   1.998   1_545  S
Cd860      O1257   2.078       .  S
Cd860       O862   2.061       .  S
Cd860      O1261   1.998       .  S
O861        C868   1.275       .  A
C863        O867   1.275       .  A
C863       C1011   1.482       .  S
C864       C1179   1.483       .  S
C866       C1123   1.483       .  S
C868        C968   1.481       .  S
C869        O870   1.275       .  A
C869        C996   1.479       .  S
O870      Cd1259   2.070       .  S
C871        C872   1.416       .  A
C871        C876   1.406       .  A
C872        C873   1.406       .  A
C873        C874   1.402       .  A
C873        H878   1.084       .  S
C874        C879   1.482       .  S
C874        C875   1.409       .  A
C875        C876   1.402       .  A
C875        N880   1.438       .  S
C876        H881   1.083       .  S
N877        H897   1.046       .  S
N877        H898   1.046       .  S
C879        C882   1.403       .  A
C879        C886   1.412       .  A
N880        H895   1.046       .  S
N880        H896   1.046       .  S
C882        C883   1.399       .  A
C882        H887   1.084       .  S
C883        C884   1.407       .  A
C883        N888   1.432       .  S
C884        C885   1.401       .  A
C885        C886   1.405       .  A
C885        H889   1.084       .  S
C886        N890   1.437       .  S
N888        H891   1.046       .  S
N888        H892   1.045       .  S
N890        H893   1.046       .  S
N890        H894   1.046       .  S
C899        C900   1.417       .  A
C899        C904   1.407       .  A
C900        C901   1.402       .  A
C900        N905   1.438       .  S
C901        C902   1.400       .  A
C901        H906   1.084       .  S
C902        C907   1.483       .  S
C902        C903   1.410       .  A
C903        C904   1.406       .  A
C903        N908   1.438       .  S
C904        H909   1.083       .  S
N905        H925   1.046       .  S
N905        H926   1.046       .  S
C907        C910   1.403       .  A
C907        C914   1.412       .  A
N908        H923   1.046       .  S
N908        H924   1.046       .  S
C910        C911   1.402       .  A
C910        H915   1.084       .  S
C911        C912   1.409       .  A
C911        N916   1.432       .  S
C912        C913   1.403       .  A
C913        C914   1.403       .  A
C913        H917   1.083       .  S
C914        N918   1.438       .  S
N916        H919   1.045       .  S
N916        H920   1.045       .  S
N918        H921   1.046       .  S
N918        H922   1.046       .  S
C927        C928   1.407       .  A
C927        C932   1.403       .  A
C928        C929   1.401       .  A
C928        N933   1.432       .  S
C929        C930   1.403       .  A
C929        H934   1.084       .  S
C930        C935   1.483       .  S
C930        C931   1.411       .  A
C931        C932   1.404       .  A
C931        N936   1.438       .  S
C932        H937   1.083       .  S
N933        H953   1.045       .  S
N933        H954   1.045       .  S
C935        C938   1.400       .  A
C935        C942   1.409       .  A
N936        H951   1.046       .  S
N936        H952   1.046       .  S
C938        C939   1.405       .  A
C938        H943   1.084       .  S
C939        C940   1.419       .  A
C939        N944   1.438       .  S
C940        C941   1.407       .  A
C941        C942   1.405       .  A
C941        H945   1.083       .  S
C942        N946   1.438       .  S
N944        H947   1.046       .  S
N944        H948   1.046       .  S
N946        H949   1.045       .  S
N946        H950   1.046       .  S
C955        C956   1.410       .  A
C955        C960   1.404       .  A
C956        C957   1.405       .  A
C956        N961   1.438       .  S
C957        C958   1.401       .  A
C957        H962   1.084       .  S
C958        C963   1.475       .  S
C958        C959   1.407       .  A
C959        C960   1.404       .  A
C959        N964   1.438       .  S
C960        H965   1.084       .  S
N961        H981   1.045       .  S
N961        H982   1.045       .  S
C963        C966   1.399       .  A
C963        C970   1.408       .  A
N964        H979   1.046       .  S
N964        H980   1.045       .  S
C966        C967   1.405       .  A
C966        H971   1.084       .  S
C967        C968   1.415       .  A
C967        N972   1.438       .  S
C968        C969   1.405       .  A
C969        C970   1.405       .  A
C969        H973   1.084       .  S
C970        N974   1.438       .  S
N972        H975   1.046       .  S
N972        H976   1.046       .  S
N974        H977   1.046       .  S
N974        H978   1.045       .  S
C983        C984   1.407       .  A
C983        C988   1.404       .  A
C984        C985   1.401       .  A
C984        N989   1.432       .  S
C985        C986   1.400       .  A
C985        H990   1.084       .  S
C986        C991   1.473       .  S
C986        C987   1.408       .  A
C987        C988   1.404       .  A
C987        N992   1.437       .  S
C988        H993   1.084       .  S
N989       H1009   1.045       .  S
N989       H1010   1.045       .  S
C991        C994   1.399       .  A
C991        C998   1.407       .  A
N992       H1007   1.046       .  S
N992       H1008   1.045       .  S
C994        C995   1.404       .  A
C994        H999   1.084       .  S
C995        C996   1.414       .  A
C995       N1000   1.438       .  S
C996        C997   1.406       .  A
C997        C998   1.405       .  A
C997       H1001   1.084       .  S
C998       N1002   1.438       .  S
N1000      H1003   1.046       .  S
N1000      H1004   1.046       .  S
N1002      H1005   1.046       .  S
N1002      H1006   1.045       .  S
C1011      C1012   1.414       .  A
C1011      C1016   1.406       .  A
C1012      C1013   1.407       .  A
C1012      N1017   1.438       .  S
C1013      C1014   1.401       .  A
C1013      H1018   1.084       .  S
C1014      C1019   1.477       .  S
C1014      C1015   1.407       .  A
C1015      C1016   1.405       .  A
C1015      N1020   1.438       .  S
C1016      H1021   1.084       .  S
N1017      H1037   1.046       .  S
N1017      H1038   1.046       .  S
C1019      C1022   1.400       .  A
C1019      C1026   1.408       .  A
N1020      H1035   1.046       .  S
N1020      H1036   1.045       .  S
C1022      C1023   1.401       .  A
C1022      H1027   1.084       .  S
C1023      C1024   1.418       .  A
C1023      N1028   1.438       .  S
C1024      C1025   1.403       .  A
C1025      C1026   1.405       .  A
C1025      H1029   1.084       .  S
C1026      N1030   1.438       .  S
N1028      H1031   1.046       .  S
N1028      H1032   1.043       .  S
N1030      H1033   1.046       .  S
N1030      H1034   1.045       .  S
C1039      C1040   1.416       .  A
C1039      C1044   1.405       .  A
C1040      C1041   1.405       .  A
C1040      N1045   1.438       .  S
C1041      C1042   1.399       .  A
C1041      H1046   1.084       .  S
C1042      C1047   1.475       .  S
C1042      C1043   1.408       .  A
C1043      C1044   1.405       .  A
C1043      N1048   1.438       .  S
C1044      H1049   1.084       .  S
N1045      H1065   1.046       .  S
N1045      H1066   1.046       .  S
C1047      C1050   1.401       .  A
C1047      C1054   1.407       .  A
N1048      H1063   1.046       .  S
N1048      H1064   1.045       .  S
C1050      C1051   1.404       .  A
C1050      H1055   1.084       .  S
C1051      C1052   1.410       .  A
C1051      N1056   1.437       .  S
C1052      C1053   1.403       .  A
C1053      C1054   1.403       .  A
C1053      H1057   1.084       .  S
C1054      N1058   1.438       .  S
N1056      H1059   1.046       .  S
N1056      H1060   1.044       .  S
N1058      H1061   1.046       .  S
N1058      H1062   1.045       .  S
C1067      C1068   1.404       .  A
C1067      C1072   1.401       .  A
C1068      C1069   1.400       .  A
C1068      N1073   1.432       .  S
C1069      C1070   1.404       .  A
C1069      H1074   1.084       .  S
C1070      C1075   1.481       .  S
C1070      C1071   1.412       .  A
C1071      C1072   1.403       .  A
C1071      N1076   1.437       .  S
C1072      H1077   1.084       .  S
N1073      H1093   1.046       .  S
N1073      H1094   1.045       .  S
C1075      C1078   1.403       .  A
C1075      C1082   1.411       .  A
N1076      H1091   1.046       .  S
N1076      H1092   1.045       .  S
C1078      C1079   1.404       .  A
C1078      H1083   1.084       .  S
C1079      C1080   1.410       .  A
C1079      N1084   1.438       .  S
C1080      C1081   1.401       .  A
C1081      C1082   1.403       .  A
C1081      H1085   1.084       .  S
C1082      N1086   1.438       .  S
N1084      H1087   1.046       .  S
N1084      H1088   1.045       .  S
N1086      H1089   1.046       .  S
N1086      H1090   1.046       .  S
C1095      C1096   1.416       .  A
C1095      C1100   1.405       .  A
C1096      C1097   1.405       .  A
C1096      N1101   1.438       .  S
C1097      C1098   1.399       .  A
C1097      H1102   1.084       .  S
C1098      C1103   1.473       .  S
C1098      C1099   1.406       .  A
C1099      C1100   1.403       .  A
C1099      N1104   1.438       .  S
C1100      H1105   1.084       .  S
N1101      H1121   1.045       .  S
N1101      H1122   1.046       .  S
C1103      C1106   1.400       .  A
C1103      C1110   1.408       .  A
N1104      H1119   1.046       .  S
N1104      H1120   1.045       .  S
C1106      C1107   1.401       .  A
C1106      H1111   1.084       .  S
C1107      C1108   1.409       .  A
C1107      N1112   1.432       .  S
C1108      C1109   1.403       .  A
C1109      C1110   1.404       .  A
C1109      H1113   1.083       .  S
C1110      N1114   1.438       .  S
N1112      H1115   1.045       .  S
N1112      H1116   1.046       .  S
N1114      H1117   1.046       .  S
N1114      H1118   1.045       .  S
C1123      C1124   1.415       .  A
C1123      C1128   1.406       .  A
C1124      C1125   1.406       .  A
C1124      N1129   1.438   1_545  S
C1125      C1126   1.403       .  A
C1125      H1130   1.084       .  S
C1126      C1131   1.482       .  S
C1126      C1127   1.409       .  A
C1127      C1128   1.402       .  A
C1127      N1132   1.438       .  S
C1128      H1133   1.084       .  S
N1129      H1149   1.046       .  S
N1129      H1150   1.046       .  S
C1131      C1134   1.403       .  A
C1131      C1138   1.411       .  A
N1132      H1147   1.046       .  S
N1132      H1148   1.046       .  S
C1134      C1135   1.402       .  A
C1134      H1139   1.084       .  S
C1135      C1136   1.410       .  A
C1135      N1140   1.437       .  S
C1136      C1137   1.400       .  A
C1137      C1138   1.404       .  A
C1137      H1141   1.084       .  S
C1138      N1142   1.438       .  S
N1140      H1143   1.046       .  S
N1140      H1144   1.045       .  S
N1142      H1145   1.046       .  S
N1142      H1146   1.046       .  S
C1151      C1152   1.414       .  A
C1151      C1156   1.405       .  A
C1152      C1153   1.407       .  A
C1153      C1154   1.402       .  A
C1153      H1158   1.084       .  S
C1154      C1159   1.479       .  S
C1154      C1155   1.408       .  A
C1155      C1156   1.403       .  A
C1155      N1160   1.438       .  S
C1156      H1161   1.084       .  S
N1157      H1177   1.046       .  S
N1157      H1178   1.046       .  S
C1159      C1162   1.402       .  A
C1159      C1166   1.410       .  A
N1160      H1175   1.046       .  S
N1160      H1176   1.046       .  S
C1162      C1163   1.400       .  A
C1162      H1167   1.084       .  S
C1163      C1164   1.407       .  A
C1163      N1168   1.432       .  S
C1164      C1165   1.402       .  A
C1165      C1166   1.406       .  A
C1165      H1169   1.084       .  S
C1166      N1170   1.437       .  S
N1168      H1171   1.046       .  S
N1168      H1172   1.045       .  S
N1170      H1173   1.046       .  S
N1170      H1174   1.046       .  S
C1179      C1180   1.414       .  A
C1179      C1184   1.406       .  A
C1180      C1181   1.406       .  A
C1180      N1185   1.438       .  S
C1181      C1182   1.402       .  A
C1181      H1186   1.084       .  S
C1182      C1187   1.483       .  S
C1182      C1183   1.409       .  A
C1183      C1184   1.406       .  A
C1183      N1188   1.438       .  S
C1184      H1189   1.084       .  S
N1185      H1205   1.046       .  S
N1185      H1206   1.046       .  S
C1187      C1190   1.403       .  A
C1187      C1194   1.410       .  A
N1188      H1203   1.046       .  S
N1188      H1204   1.046       .  S
C1190      C1191   1.401       .  A
C1190      H1195   1.084       .  S
C1191      C1192   1.416       .  A
C1191      N1196   1.438       .  S
C1192      C1193   1.402       .  A
C1193      C1194   1.404       .  A
C1193      H1197   1.084       .  S
C1194      N1198   1.437       .  S
N1196      H1199   1.046       .  S
N1196      H1200   1.043       .  S
N1198      H1201   1.046       .  S
N1198      H1202   1.046       .  S
C1207      H1208   1.112       .  S
C1207      C1213   1.533       .  S
C1207      C1212   1.533       .  S
C1207      C1211   1.532       .  S
C1209      H1210   1.111       .  S
C1209      C1215   1.535       .  S
C1209      C1214   1.532       .  S
C1209      C1216   1.534       .  S
C1211      C1214   1.371       .  D
C1211      C1566   1.476       .  S
C1212      C1215   1.375       .  D
C1212      C1594   1.483       .  S
C1213      C1216   1.374       .  D
C1213      C1538   1.483       .  S
C1214      C1469   1.480       .  S
C1215      C1510   1.481       .  S
C1216      C1454   1.480       .  S
C1217      H1218   1.111       .  S
C1217      C1223   1.533       .  S
C1217      C1222   1.537       .  S
C1217      C1221   1.536       .  S
C1219      H1220   1.111       .  S
C1219      C1225   1.530       .  S
C1219      C1224   1.531       .  S
C1219      C1226   1.534       .  S
C1221      C1224   1.373       .  D
C1221      C1385   1.480       .  S
C1222      C1225   1.374       .  D
C1222      C1357   1.482       .  S
C1223      C1226   1.373       .  D
C1223      C1426   1.484       .  S
C1224      C1314   1.482       .  S
C1225      C1286   1.480       .  S
C1226      C1329   1.480       .  S
O1227      C1243   1.273       .  A
C1228      O1244   1.274       .  A
C1228      O1241   1.274       .  A
C1228      C1273   1.483       .  S
O1229      C1242   1.275       .  A
O1229     Cd1236   2.073       .  S
O1230      C1248   1.273       .  A
O1230     Cd1239   2.063   1_556  S
O1231      C1245   1.273       .  A
O1232      C1243   1.275       .  A
O1232     Cd1235   2.071       .  S
Zn1233     O1246   2.009   1_554  S
Zn1233     O1238   1.938   1_554  S
O1234      C1245   1.275       .  A
Cd1235     O1237   2.061   1_554  S
Cd1236     O1238   2.003       .  S
O1237      C1247   1.273       .  A
Cd1239     O1241   2.060       .  S
O1240      C1247   1.276       .  A
C1242      O1246   1.273       .  A
C1242      C1441   1.480       .  S
C1243      C1301   1.483       .  S
C1245      C1342   1.488       .  S
C1247      C1482   1.474       .  S
C1248      O1249   1.275       .  A
C1248      C1497   1.476       .  S
O1250      C1266   1.275       .  A
C1251      O1267   1.275       .  A
C1251      O1264   1.273       .  A
C1251      C1553   1.477       .  S
O1252      C1265   1.275       .  A
O1253      C1271   1.274       .  A
O1253     Cd1262   2.064       .  S
O1254      C1268   1.275       .  A
O1255      C1266   1.274       .  A
O1255     Cd1258   2.069       .  S
Zn1256     O1269   2.020       .  S
O1257      C1268   1.275       .  A
Cd1258     O1260   2.060       .  S
Cd1259     O1261   2.003       .  S
O1260      C1270   1.274       .  A
Cd1262     O1264   2.054       .  S
O1263      C1270   1.276       .  A
C1265      O1269   1.275       .  A
C1265      C1413   1.484       .  S
C1266      C1581   1.483       .  S
C1268      C1525   1.487       .  S
C1270      C1370   1.481       .  S
C1271      O1272   1.275       .  A
C1271      C1398   1.484       .  S
C1273      C1274   1.416       .  A
C1273      C1278   1.406       .  A
C1274      C1275   1.405       .  A
C1275      C1276   1.402       .  A
C1275      H1280   1.084       .  S
C1276      C1281   1.480       .  S
C1276      C1277   1.408       .  A
C1277      C1278   1.402       .  A
C1277      N1282   1.438       .  S
C1278      H1283   1.084       .  S
N1279      H1299   1.046       .  S
N1279      H1300   1.046       .  S
C1281      C1284   1.402       .  A
C1281      C1288   1.410       .  A
N1282      H1297   1.046       .  S
N1282      H1298   1.046       .  S
C1284      C1285   1.399       .  A
C1284      H1289   1.084       .  S
C1285      C1286   1.408       .  A
C1285      N1290   1.432       .  S
C1286      C1287   1.402       .  A
C1287      C1288   1.404       .  A
C1287      H1291   1.084       .  S
C1288      N1292   1.438       .  S
N1290      H1293   1.046       .  S
N1290      H1294   1.045       .  S
N1292      H1295   1.046       .  S
N1292      H1296   1.046       .  S
C1301      C1302   1.413       .  A
C1301      C1306   1.407       .  A
C1302      C1303   1.400       .  A
C1302      N1307   1.433       .  S
C1303      C1304   1.401       .  A
C1303      H1308   1.084       .  S
C1304      C1309   1.482       .  S
C1304      C1305   1.410       .  A
C1305      C1306   1.407       .  A
C1305      N1310   1.438       .  S
C1306      H1311   1.083       .  S
N1307      H1327   1.046   1_565  S
N1307      H1328   1.046       .  S
C1309      C1312   1.403       .  A
C1309      C1316   1.411       .  A
N1310      H1325   1.046       .  S
N1310      H1326   1.046       .  S
C1312      C1313   1.402       .  A
C1312      H1317   1.084       .  S
C1313      C1314   1.407       .  A
C1313      N1318   1.432       .  S
C1314      C1315   1.402       .  A
C1315      C1316   1.403       .  A
C1315      H1319   1.084       .  S
C1316      N1320   1.438       .  S
N1318      H1321   1.045       .  S
N1318      H1322   1.045       .  S
N1320      H1323   1.046       .  S
N1320      H1324   1.046       .  S
C1329      C1330   1.406       .  A
C1329      C1334   1.403       .  A
C1330      C1331   1.401       .  A
C1330      N1335   1.432       .  S
C1331      C1332   1.403       .  A
C1331      H1336   1.084       .  S
C1332      C1337   1.481       .  S
C1332      C1333   1.411       .  A
C1333      C1334   1.403       .  A
C1333      N1338   1.438       .  S
C1334      H1339   1.083       .  S
N1335      H1355   1.045       .  S
N1335      H1356   1.045       .  S
C1337      C1340   1.400       .  A
C1337      C1344   1.409       .  A
N1338      H1353   1.046       .  S
N1338      H1354   1.046       .  S
C1340      C1341   1.404       .  A
C1340      H1345   1.084       .  S
C1341      C1342   1.418       .  A
C1341      N1346   1.438       .  S
C1342      C1343   1.407       .  A
C1343      C1344   1.405       .  A
C1343      H1347   1.083       .  S
C1344      N1348   1.438       .  S
N1346      H1349   1.046       .  S
N1346      H1350   1.046       .  S
N1348      H1351   1.046   1_565  S
N1348      H1352   1.046       .  S
C1357      C1358   1.411       .  A
C1357      C1362   1.404       .  A
C1358      C1359   1.404       .  A
C1358      N1363   1.437       .  S
C1359      C1360   1.400       .  A
C1359      H1364   1.084       .  S
C1360      C1365   1.474       .  S
C1360      C1361   1.407       .  A
C1361      C1362   1.404       .  A
C1361      N1366   1.438       .  S
C1362      H1367   1.084       .  S
N1363      H1383   1.045       .  S
N1363      H1384   1.046       .  S
C1365      C1368   1.398       .  A
C1365      C1372   1.408       .  A
N1366      H1381   1.046       .  S
N1366      H1382   1.045       .  S
C1368      C1369   1.404       .  A
C1368      H1373   1.084       .  S
C1369      C1370   1.416       .  A
C1369      N1374   1.438       .  S
C1370      C1371   1.405       .  A
C1371      C1372   1.405       .  A
C1371      H1375   1.084       .  S
C1372      N1376   1.438       .  S
N1374      H1377   1.046       .  S
N1374      H1378   1.046       .  S
N1376      H1379   1.046       .  S
N1376      H1380   1.045       .  S
C1385      C1386   1.406       .  A
C1385      C1390   1.403       .  A
C1386      C1387   1.400       .  A
C1386      N1391   1.431       .  S
C1387      C1388   1.400       .  A
C1387      H1392   1.084       .  S
C1388      C1393   1.473       .  S
C1388      C1389   1.409       .  A
C1389      C1390   1.404       .  A
C1389      N1394   1.438       .  S
C1390      H1395   1.084       .  S
N1391      H1411   1.045       .  S
N1391      H1412   1.045       .  S
C1393      C1396   1.398       .  A
C1393      C1400   1.407       .  A
N1394      H1409   1.046       .  S
N1394      H1410   1.045       .  S
C1396      C1397   1.404       .  A
C1396      H1401   1.084       .  S
C1397      C1398   1.416       .  A
C1397      N1402   1.438       .  S
C1398      C1399   1.407       .  A
C1399      C1400   1.405       .  A
C1399      H1403   1.083       .  S
C1400      N1404   1.438       .  S
N1402      H1405   1.046       .  S
N1402      H1406   1.046       .  S
N1404      H1407   1.046       .  S
N1404      H1408   1.045       .  S
C1413      C1414   1.415       .  A
C1413      C1418   1.406       .  A
C1414      C1415   1.407       .  A
C1414      N1419   1.438       .  S
C1415      C1416   1.401       .  A
C1415      H1420   1.084       .  S
C1416      C1421   1.479       .  S
C1416      C1417   1.407       .  A
C1417      C1418   1.405       .  A
C1417      N1422   1.438       .  S
C1418      H1423   1.084       .  S
N1419      H1439   1.046       .  S
N1419      H1440   1.046       .  S
C1421      C1424   1.400       .  A
C1421      C1428   1.408       .  A
N1422      H1437   1.046       .  S
N1422      H1438   1.045       .  S
C1424      C1425   1.402       .  A
C1424      H1429   1.084       .  S
C1425      C1426   1.419       .  A
C1425      N1430   1.438       .  S
C1426      C1427   1.402       .  A
C1427      C1428   1.405       .  A
C1427      H1431   1.084       .  S
C1428      N1432   1.438       .  S
N1430      H1433   1.045       .  S
N1430      H1434   1.043       .  S
N1432      H1435   1.046       .  S
N1432      H1436   1.045       .  S
C1441      C1442   1.416       .  A
C1441      C1446   1.405       .  A
C1442      C1443   1.404       .  A
C1442      N1447   1.438       .  S
C1443      C1444   1.398       .  A
C1443      H1448   1.084       .  S
C1444      C1449   1.473       .  S
C1444      C1445   1.407       .  A
C1445      C1446   1.405       .  A
C1445      N1450   1.438       .  S
C1446      H1451   1.084       .  S
N1447      H1467   1.046       .  S
N1447      H1468   1.046       .  S
C1449      C1452   1.400       .  A
C1449      C1456   1.407       .  A
N1450      H1465   1.046       .  S
N1450      H1466   1.045       .  S
C1452      C1453   1.403       .  A
C1452      H1457   1.084       .  S
C1453      C1454   1.410       .  A
C1453      N1458   1.437       .  S
C1454      C1455   1.403       .  A
C1455      C1456   1.403       .  A
C1455      H1459   1.084       .  S
C1456      N1460   1.437       .  S
N1458      H1461   1.046       .  S
N1458      H1462   1.044       .  S
N1460      H1463   1.046       .  S
N1460      H1464   1.045       .  S
C1469      C1470   1.405       .  A
C1469      C1474   1.403       .  A
C1470      C1471   1.402       .  A
C1470      N1475   1.432       .  S
C1471      C1472   1.404       .  A
C1471      H1476   1.084       .  S
C1472      C1477   1.482       .  S
C1472      C1473   1.411       .  A
C1473      C1474   1.405       .  A
C1473      N1478   1.437       .  S
C1474      H1479   1.084       .  S
N1475      H1495   1.046       .  S
N1475      H1496   1.045       .  S
C1477      C1480   1.403       .  A
C1477      C1484   1.410       .  A
N1478      H1493   1.046       .  S
N1478      H1494   1.045       .  S
C1480      C1481   1.406       .  A
C1480      H1485   1.084       .  S
C1481      C1482   1.413       .  A
C1481      N1486   1.438       .  S
C1482      C1483   1.402       .  A
C1483      C1484   1.404       .  A
C1483      H1487   1.084       .  S
C1484      N1488   1.438       .  S
N1486      H1489   1.046       .  S
N1486      H1490   1.045       .  S
N1488      H1491   1.046       .  S
N1488      H1492   1.046       .  S
C1497      C1498   1.415       .  A
C1497      C1502   1.404       .  A
C1498      C1499   1.406       .  A
C1498      N1503   1.438       .  S
C1499      C1500   1.400       .  A
C1499      H1504   1.084       .  S
C1500      C1505   1.474       .  S
C1500      C1501   1.406       .  A
C1501      C1502   1.403       .  A
C1501      N1506   1.438       .  S
C1502      H1507   1.084       .  S
N1503      H1523   1.045       .  S
N1503      H1524   1.046       .  S
C1505      C1508   1.400       .  A
C1505      C1512   1.408       .  A
N1506      H1521   1.046       .  S
N1506      H1522   1.045       .  S
C1508      C1509   1.401       .  A
C1508      H1513   1.084       .  S
C1509      C1510   1.408       .  A
C1509      N1514   1.432       .  S
C1510      C1511   1.403       .  A
C1511      C1512   1.404       .  A
C1511      H1515   1.083       .  S
C1512      N1516   1.437       .  S
N1514      H1517   1.045       .  S
N1514      H1518   1.045       .  S
N1516      H1519   1.046       .  S
N1516      H1520   1.045       .  S
C1525      C1526   1.415       .  A
C1525      C1530   1.407       .  A
C1526      C1527   1.408       .  A
C1526      N1531   1.438       .  S
C1527      C1528   1.404       .  A
C1527      H1532   1.084       .  S
C1528      C1533   1.486       .  S
C1528      C1529   1.410       .  A
C1529      C1530   1.403       .  A
C1529      N1534   1.438       .  S
C1530      H1535   1.083       .  S
N1531      H1551   1.046       .  S
N1531      H1552   1.046       .  S
C1533      C1536   1.403       .  A
C1533      C1540   1.413       .  A
N1534      H1549   1.046       .  S
N1534      H1550   1.046       .  S
C1536      C1537   1.403       .  A
C1536      H1541   1.084       .  S
C1537      C1538   1.411       .  A
C1537      N1542   1.437       .  S
C1538      C1539   1.401       .  A
C1539      C1540   1.406       .  A
C1539      H1543   1.084       .  S
C1540      N1544   1.437       .  S
N1542      H1545   1.046       .  S
N1542      H1546   1.045       .  S
N1544      H1547   1.046       .  S
N1544      H1548   1.046       .  S
C1553      C1554   1.413       .  A
C1553      C1558   1.405       .  A
C1554      C1555   1.406       .  A
C1555      C1556   1.402       .  A
C1555      H1560   1.084       .  S
C1556      C1561   1.476       .  S
C1556      C1557   1.407       .  A
C1557      C1558   1.402       .  A
C1557      N1562   1.438       .  S
C1558      H1563   1.084       .  S
N1559      H1579   1.046       .  S
N1559      H1580   1.046       .  S
C1561      C1564   1.401       .  A
C1561      C1568   1.410       .  A
N1562      H1577   1.046       .  S
N1562      H1578   1.046       .  S
C1564      C1565   1.399       .  A
C1564      H1569   1.084       .  S
C1565      C1566   1.407       .  A
C1565      N1570   1.432       .  S
C1566      C1567   1.401       .  A
C1567      C1568   1.405       .  A
C1567      H1571   1.084       .  S
C1568      N1572   1.437       .  S
N1570      H1573   1.046       .  S
N1570      H1574   1.045       .  S
N1572      H1575   1.046       .  S
N1572      H1576   1.046       .  S
C1581      C1582   1.414       .  A
C1581      C1586   1.406       .  A
C1582      C1583   1.406       .  A
C1582      N1587   1.438       .  S
C1583      C1584   1.402       .  A
C1583      H1588   1.084       .  S
C1584      C1589   1.484       .  S
C1584      C1585   1.410       .  A
C1585      C1586   1.406       .  A
C1585      N1590   1.438       .  S
C1586      H1591   1.084       .  S
N1587      H1607   1.046       .  S
N1587      H1608   1.046       .  S
C1589      C1592   1.403       .  A
C1589      C1596   1.410       .  A
N1590      H1605   1.046       .  S
N1590      H1606   1.046       .  S
C1592      C1593   1.402       .  A
C1592      H1597   1.084       .  S
C1593      C1594   1.417       .  A
C1593      N1598   1.438       .  S
C1594      C1595   1.402       .  A
C1595      C1596   1.405       .  A
C1595      H1599   1.084       .  S
C1596      N1600   1.438       .  S
N1598      H1601   1.046       .  S
N1598      H1602   1.043       .  S
N1600      H1603   1.046       .  S
N1600      H1604   1.046       .  S
