geometry optimzed in LAMMPS
_audit_creation_date              2020-12-01 
_audit_creation_method            'lammps2cif' 
_symmetry_space_group_name_H-M    'P1' 
_symmetry_Int_Tables_number       1 
_symmetry_cell_setting            triclinic 
loop_ 
_symmetry_equiv_pos_as_xyz 
  x,y,z 
_cell_length_a                    29.85355936 
_cell_length_b                    33.098482083670504 
_cell_length_c                    33.02360844483143 
_cell_angle_alpha                 89.46711405717826 
_cell_angle_beta                  89.99913803737505 
_cell_angle_gamma                 89.94217963091744 
loop_ 
_atom_site_label 
_atom_site_type_symbol 
_atom_site_fract_x 
_atom_site_fract_y 
_atom_site_fract_z 
_atom_site_charge 
C1          C  0.42909423  0.76800691  0.19016464     0.02400
C2          C  0.43013099  0.72813269  0.17298266     0.02400
C3          C  0.38890959  0.70961272  0.16151600    -0.18100
C4          C  0.34657379  0.72901149  0.16409229     0.02400
C5          C  0.34558503  0.77009779  0.17751759     0.02400
C6          C  0.38619762  0.78788115  0.19122379    -0.18100
H7          H  0.38325658  0.81802280  0.20306221     0.04500
H8          H  0.38994941  0.67892663  0.15046488     0.04500
C9          C  0.09685040  0.72691797  0.17790325     0.02400
C10         C  0.09766146  0.76697028  0.19475281     0.02400
C11         C  0.14061483  0.78670806  0.19610941    -0.18100
C12         C  0.18130738  0.76897839  0.18244481     0.02400
C13         C  0.18038680  0.72800615  0.16907448     0.02400
C14         C  0.13817478  0.70824767  0.16715345    -0.18100
H15         H  0.13718089  0.67747938  0.15631497     0.04500
H16         H  0.14357452  0.81700257  0.20742734     0.04500
C17         C  0.22202631  0.79585430  0.17481475     0.03300
C18         C  0.26395787  0.78959354  0.19395119    -0.12900
C19         C  0.30405631  0.79651821  0.17190611     0.00800
C20         C  0.30220576  0.82537513  0.14008081    -0.11400
C21         C  0.26064169  0.84215829  0.12773613     0.03300
C22         C  0.22079634  0.82443639  0.14308469    -0.10800
H23         H  0.26532987  0.77413109  0.22285102     0.08900
H24         H  0.33282008  0.83435174  0.12490178     0.06400
H25         H  0.18868112  0.83235965  0.12995005     0.06300
C26         C  0.22217084  0.70681010  0.15316099     0.03300
C27         C  0.22128278  0.68289738  0.11822014    -0.12900
C28         C  0.26125886  0.66554788  0.10306866     0.00800
C29         C  0.30283262  0.68155779  0.11621219    -0.11400
C30         C  0.30429448  0.70678806  0.15056890     0.03300
C31         C  0.26400035  0.70974932  0.17266344    -0.10800
H32         H  0.18948726  0.67561441  0.10435530     0.08900
H33         H  0.33353241  0.67278204  0.10125189     0.06400
H34         H  0.26523257  0.71538938  0.20458978     0.06300
C35         C  0.47172502  0.79071819  0.20418782     0.03300
C36         C  0.51262425  0.77147686  0.21604124    -0.12900
C37         C  0.05476714  0.79019307  0.20743629     0.00800
C38         C  0.05410047  0.83280015  0.20896544    -0.11400
C39         C  0.51342592  0.85384705  0.21244233     0.03300
C40         C  0.47316974  0.83328079  0.20435108    -0.10800
H41         H  0.01184664  0.74091737  0.22757914     0.08900
H42         H  0.08437416  0.85042237  0.20773204     0.06400
H43         H  0.44339770  0.85100994  0.19917967     0.06300
C44         C  0.05454922  0.70175893  0.17428786     0.03300
C45         C  0.51419097  0.71676409  0.15649940    -0.12900
C46         C  0.47220168  0.70239959  0.17126316     0.00800
C47         C  0.47165668  0.66519908  0.19204684    -0.11400
C48         C  0.51154523  0.64527198  0.20289377     0.03300
C49         C  0.05269258  0.66461575  0.19541478    -0.10800
H50         H  0.01516015  0.74493871  0.13955018     0.08900
H51         H  0.43993492  0.65305211  0.20238893     0.06400
H52         H  0.08318085  0.65178105  0.20783241     0.06300
C53         C  0.25758855  0.87794523  0.09963577     0.80400
N54         N  0.29477123  0.89377680  0.08019531    -0.77900
C55         C  0.29036927  0.92903818  0.05844521     0.82800
N56         N  0.25074836  0.94763840  0.05727701    -0.77900
C57         C  0.21431444  0.93252605  0.07484717     0.82900
N58         N  0.21693397  0.89705236  0.09555127    -0.79600
C59         C  0.51256793  0.89634892  0.22615290     0.80400
N60         N  0.04959960  0.91304827  0.24387855    -0.77900
C61         C  0.04715069  0.95117872  0.25878306     0.82800
N62         N  0.50853387  0.97161851  0.25618914    -0.77900
C63         C  0.47075121  0.95387073  0.24383817     0.82900
N64         N  0.47244964  0.91590767  0.22896459    -0.79600
C65         C  0.23866210  0.11796185  0.24722238     0.80400
N66         N  0.20161842  0.10005782  0.26399282    -0.77900
C67         C  0.20459582  0.06110453  0.27724225     0.82800
N68         N  0.24281375  0.04068789  0.27286794    -0.77900
C69         C  0.27996274  0.05825373  0.25913766     0.82900
N70         N  0.27865284  0.09752040  0.24705191    -0.79600
C71         C  0.48498899  0.11239245  0.09387580     0.80400
N72         N  0.02489617  0.09195619  0.09330710    -0.77900
C73         C  0.02578943  0.05231787  0.08315425     0.82800
N74         N  0.48775068  0.03395245  0.07293579    -0.77900
C75         C  0.44925034  0.05415246  0.06875768     0.82900
N76         N  0.44716480  0.09387008  0.07939589    -0.79600
In77       In  0.37409639  0.99568079  0.98465316     1.36900
C78         C  0.32431141  0.95014622  0.03392869     0.77700
O79         O  0.42590038  0.99832950  0.03086479    -0.60700
O80         O  0.38529141  0.05084226  0.02427093    -0.51600
C81         C  0.43134784  0.96926020  0.26411300     0.70400
O82         O  0.39937951  0.94724736  0.27588381    -0.46500
C83         C  0.32002743  0.03682803  0.27118684     0.75100
O84         O  0.36017196  0.93578144  0.01985664    -0.58300
O85         O  0.35223858  0.05397503  0.28854379    -0.48400
O86         O  0.31581094  0.98575615  0.02242235    -0.54800
C87         C  0.41775658  0.03401675  0.04193237     0.85300
O88         O  0.43191053  0.00439664  0.27833324    -0.56700
O89         O  0.31895691  0.99878480  0.27448471    -0.60000
In90       In  0.12126456  0.99792954  0.01798000     1.36900
C91         C  0.17220584  0.04067995  0.30279275     0.77700
O92         O  0.17557812  0.99244137  0.06203610    -0.60700
O93         O  0.14098059  0.93822489  0.04689989    -0.51600
C94         C  0.06523074  0.03208429  0.06763813     0.70400
O95         O  0.10022894  0.05039397  0.05676733    -0.46500
C96         C  0.07726775  0.96673173  0.28966631     0.75100
O97         O  0.13801431  0.05664036  0.31813370    -0.58300
O98         O  0.10687325  0.94636300  0.30780669    -0.48400
O99         O  0.17978060  0.00470748  0.31354740    -0.54800
C100        C  0.17384420  0.95438985  0.06440233     0.85300
O101        O  0.06223888  0.99575265  0.05652970    -0.56700
O102        O  0.07053950  0.00143358  0.30376542    -0.60000
C103        C  0.39783619  0.22745808  0.15959324     0.02400
C104        C  0.39786557  0.27107781  0.16025709     0.02400
C105        C  0.35589323  0.29141083  0.16424007    -0.18100
C106        C  0.31399408  0.27094307  0.16794401     0.02400
C107        C  0.31404088  0.22766065  0.16702597     0.02400
C108        C  0.35582456  0.20723796  0.16259174    -0.18100
H109        H  0.35568779  0.17450727  0.16245857     0.04500
H110        H  0.35589965  0.32412357  0.16513563     0.04500
C111        C  0.14772055  0.27033533  0.17368514     0.02400
C112        C  0.14787169  0.22686871  0.17398686     0.02400
C113        C  0.10601404  0.20642957  0.17032097    -0.18100
C114        C  0.06403206  0.22677535  0.16555047     0.02400
C115        C  0.06397820  0.27033887  0.16522753     0.02400
C116        C  0.10583022  0.29069726  0.16963057    -0.18100
H117        H  0.10588529  0.32343187  0.16958058     0.04500
H118        H  0.10621735  0.17370058  0.17072621     0.04500
C119        C  0.44016466  0.20235781  0.15211691     0.03300
C120        C  0.48024234  0.20813218  0.17411625    -0.12900
C121        C  0.02224763  0.20200307  0.15545216     0.00800
C122        C  0.02323223  0.17188907  0.12569277    -0.11400
C123        C  0.48306530  0.15305427  0.11289653     0.03300
C124        C  0.44167573  0.17167583  0.12266798    -0.10800
H125        H  0.47876587  0.21861180  0.20479855     0.08900
H126        H  0.05514266  0.16208765  0.11366651     0.06400
H127        H  0.41097938  0.16138756  0.10870732     0.06300
C128        C  0.19054065  0.20245614  0.18217611     0.03300
C129        C  0.19313958  0.17394739  0.21414095    -0.12900
C130        C  0.23514713  0.15709498  0.22520586     0.00800
C131        C  0.27455046  0.17550548  0.21049642    -0.11400
C132        C  0.27267111  0.20315716  0.17823239     0.03300
C133        C  0.23035105  0.20823608  0.15950577    -0.10800
H134        H  0.16280059  0.16399401  0.22915575     0.08900
H135        H  0.30677690  0.16719918  0.22316488     0.06400
H136        H  0.22840146  0.21923836  0.12880983     0.06300
C137        C  0.02224009  0.29526720  0.15489116     0.03300
C138        C  0.48043968  0.28976516  0.17423972    -0.12900
C139        C  0.44015775  0.29610652  0.15255336     0.00800
C140        C  0.44167253  0.32662169  0.12242385    -0.11400
C141        C  0.48320499  0.34452663  0.11168439     0.03300
C142        C  0.02322651  0.32518258  0.12439376    -0.10800
H143        H  0.47924922  0.27901245  0.20504756     0.08900
H144        H  0.41089780  0.33724324  0.10860807     0.06400
H145        H  0.05507977  0.33448126  0.11171588     0.06300
C146        C  0.27214271  0.29479285  0.17942681     0.03300
C147        C  0.27301301  0.32129606  0.21225954    -0.12900
C148        C  0.23303007  0.33926695  0.22640477     0.00800
C149        C  0.19151486  0.32248810  0.21456709    -0.11400
C150        C  0.18991862  0.29488233  0.18233996     0.03300
C151        C  0.23015855  0.29015055  0.16007565    -0.10800
H152        H  0.30492923  0.32947429  0.22543945     0.08900
H153        H  0.16077088  0.33196378  0.22907839     0.06400
H154        H  0.22884875  0.28020163  0.12918133     0.06300
C155        C  0.25847208  0.62679589  0.08041328     0.80400
N156        N  0.21836652  0.60650988  0.08032637    -0.77900
C157        C  0.21701086  0.56724113  0.06905921     0.82800
N158        N  0.25435480  0.54940812  0.05639831    -0.77900
C159        C  0.29306838  0.56919160  0.05241501     0.82900
N160        N  0.29605526  0.60838371  0.06484417    -0.79600
C161        C  0.50949693  0.60554131  0.22417539     0.80400
N162        N  0.04629919  0.58989543  0.24364449    -0.77900
C163        C  0.04382920  0.55220948  0.26037238     0.82800
N164        N  0.50590838  0.53108325  0.25735897    -0.77900
C165        C  0.46851228  0.54726396  0.24212479     0.82900
N166        N  0.46975195  0.58502459  0.22588566    -0.79600
C167        C  0.23561377  0.37869348  0.24729408     0.80400
N168        N  0.27553055  0.39896077  0.24687017    -0.77900
C169        C  0.27668055  0.43857476  0.25658081     0.82800
N170        N  0.23920450  0.45697645  0.26819785    -0.77900
C171        C  0.20080876  0.43691318  0.27323297     0.82900
N172        N  0.19812423  0.39732162  0.26238252    -0.79600
C173        C  0.48548104  0.38497144  0.09162365     0.80400
N174        N  0.02524806  0.40563430  0.09152496    -0.77900
C175        C  0.02617224  0.44514992  0.08010746     0.82800
N176        N  0.48839800  0.46298953  0.06771914    -0.77900
C177        C  0.45009552  0.44253526  0.06357352     0.82900
N178        N  0.44793911  0.40310977  0.07578082    -0.79600
In179      In  0.37259792  0.50022514  0.97941475     1.36900
C180        C  0.41828084  0.46221248  0.03633807     0.77700
O181        O  0.43051222  0.49382636  0.27332197    -0.60700
O182        O  0.39456741  0.54940633  0.26925238    -0.51600
C183        C  0.31671634  0.45976949  0.26832950     0.70400
O184        O  0.34996911  0.44233814  0.28410083    -0.46500
C185        C  0.32594225  0.54675825  0.02867858     0.75100
O186        O  0.38488540  0.44545615  0.02042313    -0.58300
O187        O  0.36024765  0.56093037  0.01148506    -0.48400
O188        O  0.42648562  0.49750839  0.02360057    -0.54800
C189        C  0.42850785  0.52926723  0.25914598     0.85300
O190        O  0.31541746  0.49765434  0.27194074    -0.56700
O191        O  0.31764099  0.51035831  0.02072403    -0.60000
In192      In  0.12136714  0.50178443  0.01600364     1.36900
C193        C  0.07466264  0.53591936  0.29050682     0.77700
O194        O  0.17602578  0.49477515  0.30663072    -0.60700
O195        O  0.13634531  0.44246831  0.31693731    -0.51600
C196        C  0.17676786  0.54471674  0.05938313     0.70400
O197        O  0.14182814  0.56073021  0.04509039    -0.46500
C198        C  0.06624979  0.46602672  0.06636564     0.75100
O199        O  0.10653173  0.55481664  0.30647087    -0.58300
O200        O  0.10083107  0.44796006  0.05430652    -0.48400
O201        O  0.06724779  0.50141404  0.30539706    -0.54800
C202        C  0.16882611  0.45825022  0.29845972     0.85300
O203        O  0.17932012  0.50681333  0.05596389    -0.56700
O204        O  0.06393891  0.50308524  0.05709290    -0.60000
C205        C  0.42909339  0.76800717  0.52349840     0.02400
C206        C  0.43013018  0.72813298  0.50631645     0.02400
C207        C  0.38890898  0.70961281  0.49484977    -0.18100
C208        C  0.34657315  0.72901139  0.49742584     0.02400
C209        C  0.34558420  0.77009782  0.51085071     0.02400
C210        C  0.38619671  0.78788146  0.52455706    -0.18100
H211        H  0.38325558  0.81802323  0.53639501     0.04500
H212        H  0.38994902  0.67892669  0.48379886     0.04500
C213        C  0.09684987  0.72691731  0.51123684     0.02400
C214        C  0.09766091  0.76696976  0.52808604     0.02400
C215        C  0.14061419  0.78670773  0.52944202    -0.18100
C216        C  0.18130663  0.76897796  0.51577734     0.02400
C217        C  0.18038618  0.72800547  0.50240787     0.02400
C218        C  0.13817424  0.70824685  0.50048723    -0.18100
H219        H  0.13718042  0.67747839  0.48964921     0.04500
H220        H  0.14357391  0.81700235  0.54075945     0.04500
C221        C  0.22202539  0.79585380  0.50814657     0.03300
C222        C  0.26395685  0.78959373  0.52728341    -0.12900
C223        C  0.30405540  0.79651797  0.50523834     0.00800
C224        C  0.30220488  0.82537399  0.47341225    -0.11400
C225        C  0.26064081  0.84215692  0.46106723     0.03300
C226        C  0.22079544  0.82443508  0.47641577    -0.10800
H227        H  0.26532867  0.77413196  0.55618360     0.08900
H228        H  0.33281924  0.83435050  0.45823328     0.06400
H229        H  0.18868024  0.83235818  0.46328092     0.06300
C230        C  0.22217033  0.70680927  0.48649484     0.03300
C231        C  0.22128241  0.68289614  0.45155431    -0.12900
C232        C  0.26125848  0.66554635  0.43640323     0.00800
C233        C  0.30283226  0.68155639  0.44954663    -0.11400
C234        C  0.30429397  0.70678748  0.48390280     0.03300
C235        C  0.26399983  0.70974895  0.50599725    -0.10800
H236        H  0.18948689  0.67561311  0.43768944     0.08900
H237        H  0.33353202  0.67278033  0.43458659     0.06400
H238        H  0.26523202  0.71538984  0.53792352     0.06300
C239        C  0.47172434  0.79071837  0.53752153     0.03300
C240        C  0.51262372  0.77147693  0.54937459    -0.12900
C241        C  0.05476662  0.79019253  0.54076975     0.00800
C242        C  0.05409992  0.83279961  0.54229874    -0.11400
C243        C  0.51342561  0.85384711  0.54577548     0.03300
C244        C  0.47316929  0.83328090  0.53768471    -0.10800
H245        H  0.01184628  0.74091684  0.56091305     0.08900
H246        H  0.08437353  0.85042191  0.54106492     0.06400
H247        H  0.44339712  0.85101013  0.53251368     0.06300
C248        C  0.05454867  0.70175833  0.50762166     0.03300
C249        C  0.51418993  0.71676414  0.48983284    -0.12900
C250        C  0.47220069  0.70239987  0.50459699     0.00800
C251        C  0.47165552  0.66519966  0.52538105    -0.11400
C252        C  0.51154393  0.64527250  0.53622790     0.03300
C253        C  0.05269201  0.66461544  0.52874901    -0.10800
H254        H  0.01515953  0.74493791  0.47288386     0.08900
H255        H  0.43993378  0.65305305  0.53572363     0.06400
H256        H  0.08318033  0.65178074  0.54116657     0.06300
C257        C  0.25758792  0.87794460  0.43296789     0.80400
N258        N  0.29477060  0.89377601  0.41352734    -0.77900
C259        C  0.29036945  0.92903895  0.39177970     0.82800
N260        N  0.25074940  0.94764079  0.39061409    -0.77900
C261        C  0.21431524  0.93252829  0.40818372     0.82900
N262        N  0.21693385  0.89705299  0.42888511    -0.79600
C263        C  0.51256775  0.89634894  0.55948622     0.80400
N264        N  0.04959939  0.91304772  0.57721220    -0.77900
C265        C  0.04715058  0.95117832  0.59211645     0.82800
N266        N  0.50853353  0.97161841  0.58952272    -0.77900
C267        C  0.47075097  0.95387066  0.57717157     0.82900
N268        N  0.47244943  0.91590769  0.56229789    -0.79600
C269        C  0.23866277  0.11796081  0.58055327     0.80400
N270        N  0.20161922  0.10005727  0.59732444    -0.77900
C271        C  0.20459656  0.06110417  0.61057436     0.82800
N272        N  0.24281427  0.04068727  0.60619992    -0.77900
C273        C  0.27996320  0.05825271  0.59246902     0.82900
N274        N  0.27865338  0.09751918  0.58038269    -0.79600
C275        C  0.48498900  0.11239187  0.42720990     0.80400
N276        N  0.02489613  0.09195578  0.42664103    -0.77900
C277        C  0.02578904  0.05231729  0.41648889     0.82800
N278        N  0.48774954  0.03395154  0.40627101    -0.77900
C279        C  0.44924968  0.05415213  0.40209193     0.82900
N280        N  0.44716467  0.09386990  0.41272968    -0.79600
In281      In  0.37409554  0.99568128  0.31798643     1.36900
C282        C  0.32431108  0.95014652  0.36726221     0.77700
O283        O  0.42590103  0.99833023  0.36419673    -0.60700
O284        O  0.38528995  0.05084191  0.35760585    -0.51600
C285        C  0.43134762  0.96926021  0.59744627     0.70400
O286        O  0.39937923  0.94724745  0.60921715    -0.46500
C287        C  0.32002778  0.03682726  0.60451867     0.75100
O288        O  0.36017101  0.93578144  0.35318927    -0.58300
O289        O  0.35223945  0.05397477  0.62187435    -0.48400
O290        O  0.31581082  0.98575659  0.35575625    -0.54800
C291        C  0.41775623  0.03401677  0.37526593     0.85300
O292        O  0.43191048  0.00439671  0.61166637    -0.56700
O293        O  0.31895670  0.99878420  0.60781842    -0.60000
In294      In  0.12126487  0.99792974  0.35131458     1.36900
C295        C  0.17220681  0.04068014  0.63612546     0.77700
O296        O  0.17557990  0.99244350  0.39536934    -0.60700
O297        O  0.14098080  0.93822656  0.38023761    -0.51600
C298        C  0.06523019  0.03208388  0.40097237     0.70400
O299        O  0.10022857  0.05039365  0.39010223    -0.46500
C300        C  0.07726764  0.96673176  0.62299961     0.75100
O301        O  0.13801498  0.05664062  0.65146568    -0.58300
O302        O  0.10687528  0.94636416  0.64113834    -0.48400
O303        O  0.17978191  0.00470811  0.64688122    -0.54800
C304        C  0.17384527  0.95439214  0.39773812     0.85300
O305        O  0.06223824  0.99575249  0.38986317    -0.56700
O306        O  0.07053766  0.00143277  0.63710015    -0.60000
C307        C  0.39783702  0.22745758  0.49292644     0.02400
C308        C  0.39786633  0.27107723  0.49358982     0.02400
C309        C  0.35589402  0.29141029  0.49757258    -0.18100
C310        C  0.31399487  0.27094255  0.50127625     0.02400
C311        C  0.31404171  0.22766014  0.50035817     0.02400
C312        C  0.35582543  0.20723745  0.49592460    -0.18100
H313        H  0.35568868  0.17450675  0.49579147     0.04500
H314        H  0.35590047  0.32412304  0.49846806     0.04500
C315        C  0.14772150  0.27033531  0.50701626     0.02400
C316        C  0.14787252  0.22686864  0.50731849     0.02400
C317        C  0.10601479  0.20642970  0.50365278    -0.18100
C318        C  0.06403291  0.22677553  0.49888205     0.02400
C319        C  0.06397914  0.27033903  0.49855841     0.02400
C320        C  0.10583126  0.29069734  0.50296108    -0.18100
H321        H  0.10588646  0.32343196  0.50291055     0.04500
H322        H  0.10621795  0.17370055  0.50405828     0.04500
C323        C  0.44016550  0.20235742  0.48545042     0.03300
C324        C  0.48024321  0.20813202  0.50744970    -0.12900
C325        C  0.02224843  0.20200334  0.48878405     0.00800
C326        C  0.02323282  0.17188939  0.45902462    -0.11400
C327        C  0.48306586  0.15305390  0.44623012     0.03300
C328        C  0.44167643  0.17167549  0.45600156    -0.10800
H329        H  0.47876682  0.21861212  0.53813182     0.08900
H330        H  0.05514315  0.16208794  0.44699810     0.06400
H331        H  0.41098006  0.16138722  0.44204098     0.06300
C332        C  0.19054144  0.20245590  0.51550764     0.03300
C333        C  0.19314029  0.17394656  0.54747202    -0.12900
C334        C  0.23514779  0.15709377  0.55853657     0.00800
C335        C  0.27455113  0.17550414  0.54382723    -0.11400
C336        C  0.27267188  0.20315657  0.51156392     0.03300
C337        C  0.23035185  0.20823607  0.49283746    -0.10800
H338        H  0.16280133  0.16399315  0.56248684     0.08900
H339        H  0.30677762  0.16719743  0.55649559     0.06400
H340        H  0.22840233  0.21923875  0.46214161     0.06300
C341        C  0.02224084  0.29526716  0.48822197     0.03300
C342        C  0.48044046  0.28976508  0.50757176    -0.12900
C343        C  0.44015836  0.29610574  0.48588539     0.00800
C344        C  0.44167276  0.32661996  0.45575501    -0.11400
C345        C  0.48320491  0.34452504  0.44501519     0.03300
C346        C  0.02322670  0.32518170  0.45772378    -0.10800
H347        H  0.47925018  0.27901285  0.53837987     0.08900
H348        H  0.41089783  0.33724098  0.44193905     0.06400
H349        H  0.05507980  0.33448020  0.44504528     0.06300
C350        C  0.27214354  0.29479236  0.51275900     0.03300
C351        C  0.27301357  0.32129525  0.54559196    -0.12900
C352        C  0.23303066  0.33926629  0.55973704     0.00800
C353        C  0.19151545  0.32248779  0.54789878    -0.11400
C354        C  0.18991950  0.29488226  0.51567142     0.03300
C355        C  0.23015958  0.29015056  0.49340735    -0.10800
H356        H  0.30492989  0.32947320  0.55877231     0.08900
H357        H  0.16077146  0.33196344  0.56240988     0.06400
H358        H  0.22885007  0.28020196  0.46251294     0.06300
C359        C  0.25847152  0.62679429  0.41374805     0.80400
N360        N  0.21836587  0.60650837  0.41366129    -0.77900
C361        C  0.21700994  0.56723976  0.40239372     0.82800
N362        N  0.25435366  0.54940687  0.38973214    -0.77900
C363        C  0.29306728  0.56919028  0.38574876     0.82900
N364        N  0.29605447  0.60838218  0.39817847    -0.79600
C365        C  0.50949540  0.60554243  0.55751040     0.80400
N366        N  0.04629857  0.58989683  0.57698099    -0.77900
C367        C  0.04382862  0.55221125  0.59370965     0.82800
N368        N  0.50590675  0.53108514  0.59069545    -0.77900
C369        C  0.46851076  0.54726542  0.57546071     0.82900
N370        N  0.46975036  0.58502579  0.55922102    -0.79600
C371        C  0.23561433  0.37869249  0.58062707     0.80400
N372        N  0.27553133  0.39895951  0.58020373    -0.77900
C373        C  0.27668150  0.43857332  0.58991504     0.82800
N374        N  0.23920563  0.45697495  0.60153248    -0.77900
C375        C  0.20080954  0.43691208  0.60656688     0.82900
N376        N  0.19812472  0.39732076  0.59571548    -0.79600
C377        C  0.48548029  0.38496997  0.42495481     0.80400
N378        N  0.02524744  0.40563319  0.42485552    -0.77900
C379        C  0.02617146  0.44514907  0.41343918     0.82800
N380        N  0.48839668  0.46298869  0.40105239    -0.77900
C381        C  0.45009403  0.44253459  0.39690705     0.82900
N382        N  0.44793791  0.40310873  0.40911331    -0.79600
In383      In  0.37259760  0.50022511  0.31274806     1.36900
C384        C  0.41827903  0.46221224  0.36967220     0.77700
O385        O  0.43051070  0.49382624  0.60665481    -0.60700
O386        O  0.39456647  0.54940691  0.60258922    -0.51600
C387        C  0.31671723  0.45976810  0.60166358     0.70400
O388        O  0.34997030  0.44233686  0.61743441    -0.46500
C389        C  0.32594074  0.54675738  0.36201145     0.75100
O390        O  0.38488593  0.44545496  0.35375432    -0.58300
O391        O  0.36024806  0.56092911  0.34482070    -0.48400
O392        O  0.42648207  0.49750944  0.35693741    -0.54800
C393        C  0.42850640  0.52926799  0.59248101     0.85300
O394        O  0.31541785  0.49765286  0.60527547    -0.56700
O395        O  0.31763789  0.51035839  0.35405397    -0.60000
In396      In  0.12136622  0.50178426  0.34933674     1.36900
C397        C  0.07466274  0.53592078  0.62384321     0.77700
O398        O  0.17602888  0.49477338  0.63996763    -0.60700
O399        O  0.13634292  0.44246897  0.65026788    -0.51600
C400        C  0.17676678  0.54471559  0.39271750     0.70400
O401        O  0.14182709  0.56072936  0.37842502    -0.46500
C402        C  0.06624899  0.46602593  0.39969779     0.75100
O403        O  0.10653263  0.55481744  0.63980670    -0.58300
O404        O  0.10082977  0.44795912  0.38763771    -0.48400
O405        O  0.06724787  0.50141533  0.63873303    -0.54800
C406        C  0.16882674  0.45824956  0.63179354     0.85300
O407        O  0.17931899  0.50681227  0.38929744    -0.56700
O408        O  0.06393852  0.50308482  0.39042642    -0.60000
C409        C  0.42909532  0.76800810  0.85683122     0.02400
C410        C  0.43013218  0.72813434  0.83964836     0.02400
C411        C  0.38891096  0.70961443  0.82818122    -0.18100
C412        C  0.34657507  0.72901296  0.83075781     0.02400
C413        C  0.34558612  0.77009909  0.84418368     0.02400
C414        C  0.38619861  0.78788226  0.85789053    -0.18100
H415        H  0.38325746  0.81802376  0.86972953     0.04500
H416        H  0.38995104  0.67892859  0.81712973     0.04500
C417        C  0.09685174  0.72691903  0.84457007     0.02400
C418        C  0.09766272  0.76697118  0.86141997     0.02400
C419        C  0.14061608  0.78670903  0.86277676    -0.18100
C420        C  0.18130864  0.76897961  0.84911175     0.02400
C421        C  0.18038805  0.72800752  0.83574080     0.02400
C422        C  0.13817607  0.70824897  0.83381988    -0.18100
H423        H  0.13718212  0.67748067  0.82298129     0.04500
H424        H  0.14357572  0.81700333  0.87409509     0.04500
C425        C  0.22202732  0.79585580  0.84148160     0.03300
C426        C  0.26395911  0.78959534  0.86061784    -0.12900
C427        C  0.30405730  0.79651951  0.83857215     0.00800
C428        C  0.30220634  0.82537584  0.80674632    -0.11400
C429        C  0.26064215  0.84215917  0.79440213     0.03300
C430        C  0.22079694  0.82443765  0.80975136    -0.10800
H431        H  0.26533141  0.77413316  0.88951773     0.08900
H432        H  0.33282045  0.83435222  0.79156687     0.06400
H433        H  0.18868152  0.83236107  0.79661718     0.06300
C434        C  0.22217210  0.70681145  0.81982721     0.03300
C435        C  0.22128388  0.68289737  0.78488723    -0.12900
C436        C  0.26125984  0.66554700  0.76973643     0.00800
C437        C  0.30283377  0.68155735  0.78287923    -0.11400
C438        C  0.30429572  0.70678925  0.81723482     0.03300
C439        C  0.26400170  0.70975127  0.83932928    -0.10800
H440        H  0.18948834  0.67561403  0.77102268     0.08900
H441        H  0.33353339  0.67278088  0.76791930     0.06400
H442        H  0.26523407  0.71539173  0.87125554     0.06300
C443        C  0.47172618  0.79071905  0.87085475     0.03300
C444        C  0.51262550  0.77147754  0.88270797    -0.12900
C445        C  0.05476828  0.79019381  0.87410353     0.00800
C446        C  0.05410153  0.83280086  0.87563217    -0.11400
C447        C  0.51342714  0.85384787  0.87910900     0.03300
C448        C  0.47317103  0.83328154  0.87101790    -0.10800
H449        H  0.01184753  0.74091809  0.89424605     0.08900
H450        H  0.08437522  0.85042307  0.87439870     0.06400
H451        H  0.44339889  0.85101069  0.86584623     0.06300
C452        C  0.05455061  0.70175996  0.84095458     0.03300
C453        C  0.51419211  0.71676579  0.82316515    -0.12900
C454        C  0.47220276  0.70240126  0.83792878     0.00800
C455        C  0.47165749  0.66520082  0.85871248    -0.11400
C456        C  0.51154581  0.64527353  0.86955946     0.03300
C457        C  0.05269375  0.66461679  0.86208163    -0.10800
H458        H  0.01516190  0.74493983  0.80621679     0.08900
H459        H  0.43993565  0.65305413  0.86905470     0.06400
H460        H  0.08318187  0.65178207  0.87449934     0.06300
C461        C  0.25758894  0.87794668  0.76630257     0.80400
N462        N  0.29477153  0.89377824  0.74686203    -0.77900
C463        C  0.29037001  0.92904074  0.72511373     0.82800
N464        N  0.25074965  0.94764205  0.72394743    -0.77900
C465        C  0.21431560  0.93252944  0.74151721     0.82900
N466        N  0.21693466  0.89705455  0.76221929    -0.79600
C467        C  0.51256890  0.89635003  0.89281862     0.80400
N468        N  0.04960045  0.91304979  0.91054249    -0.77900
C469        C  0.04715151  0.95118044  0.92544639     0.82800
N470        N  0.50853432  0.97162015  0.92285357    -0.77900
C471        C  0.47075165  0.95387156  0.91050369     0.82900
N472        N  0.47245039  0.91590832  0.89563068    -0.79600
C473        C  0.23866360  0.11796097  0.91388806     0.80400
N474        N  0.20162001  0.10005764  0.93065946    -0.77900
C475        C  0.20459732  0.06110475  0.94390994     0.82800
N476        N  0.24281504  0.04068781  0.93953584    -0.77900
C477        C  0.27996389  0.05825300  0.92580463     0.82900
N478        N  0.27865420  0.09751928  0.91371773    -0.79600
C479        C  0.48498917  0.11239329  0.76054283     0.80400
N480        N  0.02489623  0.09195699  0.75997424    -0.77900
C481        C  0.02578942  0.05231884  0.74982096     0.82800
N482        N  0.48775040  0.03395367  0.73960189    -0.77900
C483        C  0.44925018  0.05415384  0.73542389     0.82900
N484        N  0.44716482  0.09387135  0.74606259    -0.79600
In485      In  0.37409568  0.99568196  0.65131941     1.36900
C486        C  0.32431158  0.95014808  0.70059600     0.77700
O487        O  0.42590154  0.99833179  0.69752909    -0.60700
O488        O  0.38528946  0.05084293  0.69093878    -0.51600
C489        C  0.43134856  0.96926047  0.93077933     0.70400
O490        O  0.39938006  0.94724749  0.94254953    -0.46500
C491        C  0.32002836  0.03682713  0.93785362     0.75100
O492        O  0.36017150  0.93578280  0.68652318    -0.58300
O493        O  0.35224024  0.05397417  0.95520943    -0.48400
O494        O  0.31581115  0.98575797  0.68908952    -0.54800
C495        C  0.41775634  0.03401824  0.70859841     0.85300
O496        O  0.43191156  0.00439644  0.94500061    -0.56700
O497        O  0.31895703  0.99878401  0.94115265    -0.60000
In498      In  0.12126540  0.99793044  0.68464741     1.36900
C499        C  0.17220714  0.04068033  0.96946026     0.77700
O500        O  0.17557851  0.99244415  0.72870440    -0.60700
O501        O  0.14098226  0.93822684  0.71356884    -0.51600
C502        C  0.06523078  0.03208551  0.73430472     0.70400
O503        O  0.10022864  0.05039549  0.72343343    -0.46500
C504        C  0.07726807  0.96673310  0.95633025     0.75100
O505        O  0.13801442  0.05664025  0.98479947    -0.58300
O506        O  0.10687290  0.94636390  0.97447094    -0.48400
O507        O  0.17978244  0.00470830  0.98021598    -0.54800
C508        C  0.17384526  0.95439264  0.73107139     0.85300
O509        O  0.06223941  0.99575363  0.72319696    -0.56700
O510        O  0.07053981  0.00143474  0.97042984    -0.60000
C511        C  0.39783645  0.22745769  0.82625999     0.02400
C512        C  0.39786581  0.27107725  0.82692439     0.02400
C513        C  0.35589342  0.29141014  0.83090716    -0.18100
C514        C  0.31399422  0.27094221  0.83461023     0.02400
C515        C  0.31404102  0.22765982  0.83369068     0.02400
C516        C  0.35582482  0.20723742  0.82925671    -0.18100
H517        H  0.35568815  0.17450671  0.82912262     0.04500
H518        H  0.35589984  0.32412290  0.83180325     0.04500
C519        C  0.14772077  0.27033466  0.84035282     0.02400
C520        C  0.14787189  0.22686804  0.84065425     0.02400
C521        C  0.10601409  0.20642911  0.83698922    -0.18100
C522        C  0.06403208  0.22677495  0.83221934     0.02400
C523        C  0.06397826  0.27033840  0.83189634     0.02400
C524        C  0.10583040  0.29069669  0.83629889    -0.18100
H525        H  0.10588556  0.32343129  0.83624880     0.04500
H526        H  0.10621733  0.17369996  0.83739437     0.04500
C527        C  0.44016505  0.20235777  0.81878434     0.03300
C528        C  0.48024229  0.20813200  0.84078446    -0.12900
C529        C  0.02224765  0.20200291  0.82212083     0.00800
C530        C  0.02323252  0.17188906  0.79236135    -0.11400
C531        C  0.48306587  0.15305465  0.77956418     0.03300
C532        C  0.44167640  0.17167634  0.78933505    -0.10800
H533        H  0.47876526  0.21861211  0.87146654     0.08900
H534        H  0.05514309  0.16208741  0.78033548     0.06400
H535        H  0.41098037  0.16138860  0.77537356     0.06300
C536        C  0.19054107  0.20245529  0.84884215     0.03300
C537        C  0.19314083  0.17394635  0.88080678    -0.12900
C538        C  0.23514850  0.15709337  0.89187037     0.00800
C539        C  0.27455157  0.17550307  0.87715952    -0.11400
C540        C  0.27267145  0.20315576  0.84489643     0.03300
C541        C  0.23035086  0.20823537  0.82617097    -0.10800
H542        H  0.16280229  0.16399343  0.89582266     0.08900
H543        H  0.30677835  0.16719615  0.88982697     0.06400
H544        H  0.22840042  0.21923842  0.79547520     0.06300
C545        C  0.02224022  0.29526663  0.82155944     0.03300
C546        C  0.48043983  0.28976514  0.84090733    -0.12900
C547        C  0.44015801  0.29610572  0.81922045     0.00800
C548        C  0.44167307  0.32661909  0.78908925    -0.11400
C549        C  0.48320564  0.34452325  0.77834906     0.03300
C550        C  0.02322690  0.32518062  0.79106081    -0.10800
H551        H  0.47924923  0.27901294  0.87171544     0.08900
H552        H  0.41089843  0.33724007  0.77527288     0.06400
H553        H  0.05508035  0.33447865  0.77838261     0.06300
C554        C  0.27214296  0.29479156  0.84609398     0.03300
C555        C  0.27301359  0.32129402  0.87892728    -0.12900
C556        C  0.23303096  0.33926500  0.89307297     0.00800
C557        C  0.19151553  0.32248664  0.88123515    -0.11400
C558        C  0.18991894  0.29488146  0.84900756     0.03300
C559        C  0.23015865  0.29014982  0.82674288    -0.10800
H560        H  0.30493004  0.32947189  0.89210722     0.08900
H561        H  0.16077178  0.33196228  0.89574671     0.06400
H562        H  0.22884860  0.28020164  0.79584848     0.06300
C563        C  0.25847272  0.62679440  0.74708191     0.80400
N564        N  0.21836687  0.60650876  0.74699489    -0.77900
C565        C  0.21701079  0.56723997  0.73572768     0.82800
N566        N  0.25435459  0.54940663  0.72306685    -0.77900
C567        C  0.29306850  0.56918966  0.71908388     0.82900
N568        N  0.29605575  0.60838176  0.73151307    -0.79600
C569        C  0.50949702  0.60554318  0.89084179     0.80400
N570        N  0.04629965  0.58989716  0.91031237    -0.77900
C571        C  0.04382943  0.55221144  0.92704078     0.82800
N572        N  0.50590778  0.53108585  0.92402687    -0.77900
C573        C  0.46851177  0.54726652  0.90879260     0.82900
N574        N  0.46975165  0.58502693  0.89255284    -0.79600
C575        C  0.23561499  0.37869146  0.91396240     0.80400
N576        N  0.27553183  0.39895873  0.91353814    -0.77900
C577        C  0.27668179  0.43857286  0.92324828     0.82800
N578        N  0.23920577  0.45697467  0.93486523    -0.77900
C579        C  0.20081003  0.43691154  0.93990074     0.82900
N580        N  0.19812549  0.39731986  0.92905073    -0.79600
C581        C  0.48548191  0.38496758  0.75828769     0.80400
N582        N  0.02524891  0.40563132  0.75819044    -0.77900
C583        C  0.02617307  0.44514694  0.74677315     0.82800
N584        N  0.48839883  0.46298592  0.73438441    -0.77900
C585        C  0.45009628  0.44253179  0.73023875     0.82900
N586        N  0.44793987  0.40310615  0.74244544    -0.79600
In587      In  0.37259772  0.50022369  0.64608279     1.36900
C588        C  0.41828125  0.46220974  0.70300433     0.77700
O589        O  0.43051248  0.49382799  0.93998874    -0.60700
O590        O  0.39456602  0.54940713  0.93591894    -0.51600
C591        C  0.31671744  0.45976812  0.93499640     0.70400
O592        O  0.34997078  0.44233745  0.95076742    -0.46500
C593        C  0.32594228  0.54675618  0.69534739     0.75100
O594        O  0.38488437  0.44545443  0.68709078    -0.58300
O595        O  0.36024845  0.56092801  0.67815490    -0.48400
O596        O  0.42648690  0.49750536  0.69026651    -0.54800
C597        C  0.42850730  0.52926895  0.92581297     0.85300
O598        O  0.31541780  0.49765292  0.93860763    -0.56700
O599        O  0.31764029  0.51035662  0.68739172    -0.60000
In600      In  0.12136708  0.50178389  0.68267138     1.36900
C601        C  0.07466378  0.53592058  0.95717406     0.77700
O602        O  0.17602783  0.49477387  0.97329871    -0.60700
O603        O  0.13634514  0.44246824  0.98360355    -0.51600
C604        C  0.17676755  0.54471571  0.72605163     0.70400
O605        O  0.14182773  0.56072933  0.71175921    -0.46500
C606        C  0.06625074  0.46602430  0.73303264     0.75100
O607        O  0.10653200  0.55481801  0.97313934    -0.58300
O608        O  0.10083168  0.44795801  0.72097212    -0.48400
O609        O  0.06725015  0.50141426  0.97206246    -0.54800
C610        C  0.16882725  0.45824924  0.96512708     0.85300
O611        O  0.17931978  0.50681232  0.72263193    -0.56700
O612        O  0.06394008  0.50308335  0.72376207    -0.60000
C613        C  0.92909419  0.76800729  0.19016463     0.02400
C614        C  0.93013085  0.72813311  0.17298258     0.02400
C615        C  0.88890947  0.70961319  0.16151596    -0.18100
C616        C  0.84657370  0.72901196  0.16409231     0.02400
C617        C  0.84558492  0.77009821  0.17751777     0.02400
C618        C  0.88619758  0.78788153  0.19122385    -0.18100
H619        H  0.88325663  0.81802330  0.20306225     0.04500
H620        H  0.88994931  0.67892714  0.15046477     0.04500
C621        C  0.59685051  0.72691790  0.17790371     0.02400
C622        C  0.59766145  0.76697025  0.19475318     0.02400
C623        C  0.64061476  0.78670819  0.19610985    -0.18100
C624        C  0.68130729  0.76897861  0.18244503     0.02400
C625        C  0.68038678  0.72800636  0.16907474     0.02400
C626        C  0.63817488  0.70824771  0.16715392    -0.18100
H627        H  0.63718109  0.67747928  0.15631556     0.04500
H628        H  0.64357437  0.81700250  0.20742784     0.04500
C629        C  0.72202613  0.79585460  0.17481485     0.03300
C630        C  0.76395769  0.78959402  0.19395139    -0.12900
C631        C  0.80405616  0.79651865  0.17190629     0.00800
C632        C  0.80220558  0.82537537  0.14008081    -0.11400
C633        C  0.76064150  0.84215842  0.12773602     0.03300
C634        C  0.72079619  0.82443650  0.14308465    -0.10800
H635        H  0.76532963  0.77413163  0.22285124     0.08900
H636        H  0.83281985  0.83435194  0.12490170     0.06400
H637        H  0.68868080  0.83235971  0.12994991     0.06300
C638        C  0.72217082  0.70681042  0.15316122     0.03300
C639        C  0.72128278  0.68289790  0.11822026    -0.12900
C640        C  0.76125874  0.66554826  0.10306882     0.00800
C641        C  0.80283258  0.68155814  0.11621227    -0.11400
C642        C  0.80429440  0.70678852  0.15056894     0.03300
C643        C  0.76400038  0.70974968  0.17266360    -0.10800
H644        H  0.68948715  0.67561510  0.10435529     0.08900
H645        H  0.83353222  0.67278240  0.10125199     0.06400
H646        H  0.76523271  0.71538990  0.20458991     0.06300
C647        C  0.97172506  0.79071849  0.20418777     0.03300
C648        C  0.01262429  0.77147701  0.21604101    -0.12900
C649        C  0.55476707  0.79019294  0.20743655     0.00800
C650        C  0.55410031  0.83280000  0.20896542    -0.11400
C651        C  0.01342609  0.85384728  0.21244251     0.03300
C652        C  0.97316990  0.83328108  0.20435115    -0.10800
H653        H  0.51184665  0.74091714  0.22757953     0.08900
H654        H  0.58437396  0.85042228  0.20773195     0.06400
H655        H  0.94339790  0.85101029  0.19917977     0.06300
C656        C  0.55454944  0.70175873  0.17428841     0.03300
C657        C  0.01419073  0.71676445  0.15649899    -0.12900
C658        C  0.97220146  0.70239996  0.17126283     0.00800
C659        C  0.97165638  0.66519936  0.19204630    -0.11400
C660        C  0.01154489  0.64527215  0.20289306     0.03300
C661        C  0.55269289  0.66461559  0.19541544    -0.10800
H662        H  0.51516041  0.74493829  0.13955046     0.08900
H663        H  0.93993463  0.65305244  0.20238850     0.06400
H664        H  0.58318119  0.65178094  0.20783307     0.06300
C665        C  0.75758848  0.87794528  0.09963553     0.80400
N666        N  0.79477118  0.89377673  0.08019496    -0.77900
C667        C  0.79036924  0.92903806  0.05844471     0.82800
N668        N  0.75074842  0.94763843  0.05727671    -0.77900
C669        C  0.71431451  0.93252620  0.07484702     0.82900
N670        N  0.71693393  0.89705247  0.09555104    -0.79600
C671        C  0.01256804  0.89634916  0.22615319     0.80400
N672        N  0.54959957  0.91304800  0.24387817    -0.77900
C673        C  0.54715081  0.95117847  0.25878260     0.82800
N674        N  0.00853370  0.97161867  0.25618975    -0.77900
C675        C  0.97075111  0.95387085  0.24383865     0.82900
N676        N  0.97244970  0.91590787  0.22896493    -0.79600
C677        C  0.73866144  0.11796130  0.24722181     0.80400
N678        N  0.70161782  0.10005736  0.26399252    -0.77900
C679        C  0.70459545  0.06110426  0.27724253     0.82800
N680        N  0.74281353  0.04068774  0.27286851    -0.77900
C681        C  0.77996241  0.05825355  0.25913797     0.82900
N682        N  0.77865228  0.09752000  0.24705165    -0.79600
C683        C  0.98498896  0.11239232  0.09387584     0.80400
N684        N  0.52489631  0.09195651  0.09330686    -0.77900
C685        C  0.52578969  0.05231815  0.08315412     0.82800
N686        N  0.98775035  0.03395234  0.07293569    -0.77900
C687        C  0.94925016  0.05415252  0.06875735     0.82900
N688        N  0.94716475  0.09387015  0.07939559    -0.79600
In689      In  0.87409635  0.99568082  0.98465253     1.36900
C690        C  0.82431133  0.95014608  0.03392801     0.77700
O691        O  0.92590039  0.99832970  0.03086413    -0.60700
O692        O  0.88529109  0.05084226  0.02427059    -0.51600
C693        C  0.93134761  0.96926027  0.26411331     0.70400
O694        O  0.89937954  0.94724723  0.27588443    -0.46500
C695        C  0.82002727  0.03682815  0.27118721     0.75100
O696        O  0.86017195  0.93578138  0.01985603    -0.58300
O697        O  0.85223800  0.05397528  0.28854468    -0.48400
O698        O  0.81581077  0.98575596  0.02242152    -0.54800
C699        C  0.91775641  0.03401686  0.04193190     0.85300
O700        O  0.93190993  0.00439686  0.27833316    -0.56700
O701        O  0.81895723  0.99878489  0.27448465    -0.60000
In702      In  0.62126513  0.99793013  0.01797983     1.36900
C703        C  0.67220551  0.04067972  0.30279315     0.77700
O704        O  0.67557815  0.99244165  0.06203663    -0.60700
O705        O  0.64098102  0.93822528  0.04689930    -0.51600
C706        C  0.56523105  0.03208472  0.06763791     0.70400
O707        O  0.60022908  0.05039456  0.05676694    -0.46500
C708        C  0.57726780  0.96673143  0.28966602     0.75100
O709        O  0.63801365  0.05663995  0.31813369    -0.58300
O710        O  0.60687284  0.94636252  0.30780688    -0.48400
O711        O  0.67978061  0.00470745  0.31354826    -0.54800
C712        C  0.67384434  0.95439010  0.06440231     0.85300
O713        O  0.56223939  0.99575302  0.05652960    -0.56700
O714        O  0.57053980  0.00143341  0.30376491    -0.60000
C715        C  0.89783622  0.22745760  0.15959354     0.02400
C716        C  0.89786558  0.27107732  0.16025708     0.02400
C717        C  0.85589321  0.29141024  0.16423981    -0.18100
C718        C  0.81399405  0.27094256  0.16794374     0.02400
C719        C  0.81404086  0.22766011  0.16702589     0.02400
C720        C  0.85582459  0.20723750  0.16259201    -0.18100
H721        H  0.85568783  0.17450665  0.16245896     0.04500
H722        H  0.85589963  0.32412310  0.16513518     0.04500
C723        C  0.64772057  0.27033525  0.17368455     0.02400
C724        C  0.64787163  0.22686859  0.17398603     0.02400
C725        C  0.60601394  0.20642965  0.17032007    -0.18100
C726        C  0.56403201  0.22677550  0.16554988     0.02400
C727        C  0.56397818  0.27033901  0.16522723     0.02400
C728        C  0.60583025  0.29069726  0.16963024    -0.18100
H729        H  0.60588539  0.32343188  0.16958043     0.04500
H730        H  0.60621719  0.17370049  0.17072512     0.04500
C731        C  0.94016473  0.20235742  0.15211731     0.03300
C732        C  0.98024235  0.20813185  0.17411678    -0.12900
C733        C  0.52224755  0.20200339  0.15545158     0.00800
C734        C  0.52323216  0.17188940  0.12569219    -0.11400
C735        C  0.98306536  0.15305403  0.11289686     0.03300
C736        C  0.94167578  0.17167555  0.12266830    -0.10800
H737        H  0.97876578  0.21861156  0.20479893     0.08900
H738        H  0.55514250  0.16208800  0.11366585     0.06400
H739        H  0.91097951  0.16138737  0.10870761     0.06300
C740        C  0.69054047  0.20245584  0.18217527     0.03300
C741        C  0.69313914  0.17394682  0.21413994    -0.12900
C742        C  0.73514656  0.15709425  0.22520495     0.00800
C743        C  0.77455002  0.17550470  0.21049574    -0.11400
C744        C  0.77267096  0.20315660  0.17823189     0.03300
C745        C  0.73035101  0.20823575  0.15950515    -0.10800
H746        H  0.66280008  0.16399344  0.22915466     0.08900
H747        H  0.80677638  0.16719838  0.22316446     0.06400
H748        H  0.72840166  0.21923816  0.12880919     0.06300
C749        C  0.52224009  0.29526748  0.15489109     0.03300
C750        C  0.98043967  0.28976486  0.17423967    -0.12900
C751        C  0.94015776  0.29610601  0.15255325     0.00800
C752        C  0.94167252  0.32662106  0.12242359    -0.11400
C753        C  0.98320497  0.34452612  0.11168418     0.03300
C754        C  0.52322650  0.32518291  0.12439380    -0.10800
H755        H  0.97924922  0.27901224  0.20504765     0.08900
H756        H  0.91089780  0.33724249  0.10860777     0.06400
H757        H  0.55507976  0.33448146  0.11171574     0.06300
C758        C  0.77214274  0.29479246  0.17942638     0.03300
C759        C  0.77301305  0.32129582  0.21225896    -0.12900
C760        C  0.73303022  0.33926681  0.22640417     0.00800
C761        C  0.69151494  0.32248803  0.21456647    -0.11400
C762        C  0.68991868  0.29488217  0.18233941     0.03300
C763        C  0.73015859  0.29015025  0.16007510    -0.10800
H764        H  0.80492939  0.32947403  0.22543896     0.08900
H765        H  0.66077106  0.33196376  0.22907779     0.06400
H766        H  0.72884880  0.28020145  0.12918086     0.06300
C767        C  0.75847179  0.62679628  0.08041341     0.80400
N768        N  0.71836613  0.60651041  0.08032656    -0.77900
C769        C  0.71701029  0.56724168  0.06905929     0.82800
N770        N  0.75435416  0.54940863  0.05639824    -0.77900
C771        C  0.79306782  0.56919194  0.05241489     0.82900
N772        N  0.79605489  0.60838402  0.06484419    -0.79600
C773        C  0.00949655  0.60554145  0.22417462     0.80400
N774        N  0.54629952  0.58989548  0.24364550    -0.77900
C775        C  0.54382965  0.55220947  0.26037326     0.82800
N776        N  0.00590785  0.53108341  0.25735825    -0.77900
C777        C  0.96851174  0.54726425  0.24212420     0.82900
N778        N  0.96975148  0.58502488  0.22588511    -0.79600
C779        C  0.73561392  0.37869316  0.24729380     0.80400
N780        N  0.77553066  0.39896059  0.24686992    -0.77900
C781        C  0.77668043  0.43857459  0.25658060     0.82800
N782        N  0.73920428  0.45697614  0.26819755    -0.77900
C783        C  0.70080863  0.43691272  0.27323277     0.82900
N784        N  0.69812435  0.39732115  0.26238239    -0.79600
C785        C  0.98548092  0.38497105  0.09162360     0.80400
N786        N  0.52524812  0.40563473  0.09152519    -0.77900
C787        C  0.52617233  0.44515033  0.08010754     0.82800
N788        N  0.98839782  0.46298929  0.06771950    -0.77900
C789        C  0.95009524  0.44253512  0.06357411     0.82900
N790        N  0.94793891  0.40310953  0.07578114    -0.79600
In791      In  0.87259790  0.50022500  0.97941519     1.36900
C792        C  0.91828039  0.46221252  0.03633895     0.77700
O793        O  0.93051183  0.49382665  0.27332140    -0.60700
O794        O  0.89456701  0.54940668  0.26925211    -0.51600
C795        C  0.81671607  0.45976956  0.26832940     0.70400
O796        O  0.84996919  0.44233838  0.28410028    -0.46500
C797        C  0.82594159  0.54675847  0.02867832     0.75100
O798        O  0.88488518  0.44545612  0.02042373    -0.58300
O799        O  0.86024820  0.56092998  0.01148628    -0.48400
O800        O  0.92648497  0.49750856  0.02360174    -0.54800
C801        C  0.92850739  0.52926755  0.25914552     0.85300
O802        O  0.81541680  0.49765436  0.27194107    -0.56700
O803        O  0.81763938  0.51035899  0.02072251    -0.60000
In804      In  0.62136681  0.50178481  0.01600363     1.36900
C805        C  0.57466320  0.53591920  0.29050750     0.77700
O806        O  0.67602517  0.49477485  0.30663010    -0.60700
O807        O  0.63634593  0.44246755  0.31693821    -0.51600
C808        C  0.67676721  0.54471727  0.05938335     0.70400
O809        O  0.64182740  0.56073065  0.04509065    -0.46500
C810        C  0.56624994  0.46602710  0.06636587     0.75100
O811        O  0.60653170  0.55481666  0.30647233    -0.58300
O812        O  0.60083096  0.44796034  0.05430628    -0.48400
O813        O  0.56724889  0.50141341  0.30539686    -0.54800
C814        C  0.66882599  0.45824972  0.29845969     0.85300
O815        O  0.67931961  0.50681389  0.05596398    -0.56700
O816        O  0.56393919  0.50308574  0.05709353    -0.60000
C817        C  0.92909348  0.76800678  0.52349870     0.02400
C818        C  0.93013027  0.72813262  0.50631666     0.02400
C819        C  0.88890900  0.70961249  0.49485007    -0.18100
C820        C  0.84657317  0.72901114  0.49742615     0.02400
C821        C  0.84558429  0.77009758  0.51085097     0.02400
C822        C  0.88619680  0.78788105  0.52455739    -0.18100
H823        H  0.88325566  0.81802293  0.53639542     0.04500
H824        H  0.88994899  0.67892637  0.48379914     0.04500
C825        C  0.59684967  0.72691747  0.51123683     0.02400
C826        C  0.59766085  0.76696995  0.52808596     0.02400
C827        C  0.64061424  0.78670779  0.52944199    -0.18100
C828        C  0.68130665  0.76897783  0.51577739     0.02400
C829        C  0.68038604  0.72800534  0.50240792     0.02400
C830        C  0.63817398  0.70824690  0.50048726    -0.18100
H831        H  0.63718002  0.67747838  0.48964931     0.04500
H832        H  0.64357405  0.81700240  0.54075931     0.04500
C833        C  0.72202553  0.79585350  0.50814657     0.03300
C834        C  0.76395698  0.78959354  0.52728352    -0.12900
C835        C  0.80405555  0.79651779  0.50523852     0.00800
C836        C  0.80220506  0.82537376  0.47341232    -0.11400
C837        C  0.76064095  0.84215666  0.46106729     0.03300
C838        C  0.72079566  0.82443473  0.47641579    -0.10800
H839        H  0.76532883  0.77413183  0.55618376     0.08900
H840        H  0.83281939  0.83435030  0.45823338     0.06400
H841        H  0.68868030  0.83235784  0.46328087     0.06300
C842        C  0.72217022  0.70680901  0.48649509     0.03300
C843        C  0.72128241  0.68289578  0.45155463    -0.12900
C844        C  0.76125855  0.66554606  0.43640359     0.00800
C845        C  0.80283230  0.68155631  0.44954689    -0.11400
C846        C  0.80429391  0.70678737  0.48390307     0.03300
C847        C  0.76399974  0.70974881  0.50599749    -0.10800
H848        H  0.68948690  0.67561258  0.43768979     0.08900
H849        H  0.83353200  0.67278034  0.43458691     0.06400
H850        H  0.76523195  0.71538964  0.53792379     0.06300
C851        C  0.97172443  0.79071793  0.53752192     0.03300
C852        C  0.01262383  0.77147646  0.54937483    -0.12900
C853        C  0.55476657  0.79019289  0.54076944     0.00800
C854        C  0.55409995  0.83279997  0.54229813    -0.11400
C855        C  0.01342559  0.85384669  0.54577634     0.03300
C856        C  0.97316926  0.83328047  0.53768557    -0.10800
H857        H  0.51184613  0.74091733  0.56091295     0.08900
H858        H  0.58437362  0.85042217  0.54106435     0.06400
H859        H  0.94339708  0.85100967  0.53251484     0.06300
C860        C  0.55454842  0.70175857  0.50762170     0.03300
C861        C  0.01419011  0.71676387  0.48983286    -0.12900
C862        C  0.97220087  0.70239957  0.50459707     0.00800
C863        C  0.97165578  0.66519939  0.52538124    -0.11400
C864        C  0.01154429  0.64527230  0.53622806     0.03300
C865        C  0.55269170  0.66461562  0.52874895    -0.10800
H866        H  0.51515933  0.74493819  0.47288384     0.08900
H867        H  0.93993415  0.65305283  0.53572387     0.06400
H868        H  0.58317998  0.65178084  0.54116651     0.06300
C869        C  0.75758798  0.87794447  0.43296809     0.80400
N870        N  0.79477066  0.89377611  0.41352772    -0.77900
C871        C  0.79036930  0.92903897  0.39177995     0.82800
N872        N  0.75074916  0.94764055  0.39061415    -0.77900
C873        C  0.71431502  0.93252786  0.40818367     0.82900
N874        N  0.71693379  0.89705258  0.42888510    -0.79600
C875        C  0.01256773  0.89634857  0.55948695     0.80400
N876        N  0.54959931  0.91304796  0.57721171    -0.77900
C877        C  0.54715047  0.95117841  0.59211628     0.82800
N878        N  0.00853362  0.97161823  0.58952295    -0.77900
C879        C  0.97075099  0.95387033  0.57717216     0.82900
N880        N  0.97244943  0.91590728  0.56229868    -0.79600
C881        C  0.73866312  0.11796105  0.58055417     0.80400
N882        N  0.70161949  0.10005749  0.59732512    -0.77900
C883        C  0.70459661  0.06110431  0.61057476     0.82800
N884        N  0.74281428  0.04068731  0.60620028    -0.77900
C885        C  0.77996332  0.05825275  0.59246964     0.82900
N886        N  0.77865370  0.09751932  0.58038357    -0.79600
C887        C  0.98498913  0.11239216  0.42720931     0.80400
N888        N  0.52489592  0.09195537  0.42664164    -0.77900
C889        C  0.52578880  0.05231690  0.41648941     0.82800
N890        N  0.98774984  0.03395179  0.40627075    -0.77900
C891        C  0.94924986  0.05415226  0.40209184     0.82900
N892        N  0.94716483  0.09387006  0.41272937    -0.79600
In893      In  0.87409545  0.99568134  0.31798676     1.36900
C894        C  0.82431090  0.95014661  0.36726249     0.77700
O895        O  0.92590137  0.99833039  0.36419667    -0.60700
O896        O  0.88528995  0.05084191  0.35760615    -0.51600
C897        C  0.93134775  0.96925990  0.59744690     0.70400
O898        O  0.89937930  0.94724720  0.60921774    -0.46500
C899        C  0.82002781  0.03682706  0.60451925     0.75100
O900        O  0.86017104  0.93578167  0.35318988    -0.58300
O901        O  0.85223986  0.05397445  0.62187443    -0.48400
O902        O  0.81581046  0.98575657  0.35575626    -0.54800
C903        C  0.91775643  0.03401686  0.37526600     0.85300
O904        O  0.93191073  0.00439638  0.61166702    -0.56700
O905        O  0.81895642  0.99878403  0.60781936    -0.60000
In906      In  0.62126452  0.99792929  0.35131479     1.36900
C907        C  0.67220667  0.04068017  0.63612554     0.77700
O908        O  0.67557967  0.99244299  0.39536938    -0.60700
O909        O  0.64098054  0.93822603  0.38023764    -0.51600
C910        C  0.56522993  0.03208339  0.40097283     0.70400
O911        O  0.60022848  0.05039305  0.39010291    -0.46500
C912        C  0.57726752  0.96673170  0.62299957     0.75100
O913        O  0.63801499  0.05664073  0.65146598    -0.58300
O914        O  0.60687472  0.94636386  0.64113866    -0.48400
O915        O  0.67978149  0.00470796  0.64688087    -0.54800
C916        C  0.67384505  0.95439163  0.39773811     0.85300
O917        O  0.56223779  0.99575214  0.38986327    -0.56700
O918        O  0.57053796  0.00143287  0.63709984    -0.60000
C919        C  0.89783703  0.22745766  0.49292617     0.02400
C920        C  0.89786639  0.27107732  0.49358967     0.02400
C921        C  0.85589407  0.29141030  0.49757272    -0.18100
C922        C  0.81399493  0.27094261  0.50127673     0.02400
C923        C  0.81404175  0.22766019  0.50035850     0.02400
C924        C  0.85582544  0.20723752  0.49592458    -0.18100
H925        H  0.85568869  0.17450678  0.49579138     0.04500
H926        H  0.85590054  0.32412317  0.49846812     0.04500
C927        C  0.64772148  0.27033525  0.50701713     0.02400
C928        C  0.64787253  0.22686859  0.50731945     0.02400
C929        C  0.60601478  0.20642958  0.50365386    -0.18100
C930        C  0.56403286  0.22677545  0.49888305     0.02400
C931        C  0.56397907  0.27033898  0.49855944     0.02400
C932        C  0.60583121  0.29069729  0.50296207    -0.18100
H933        H  0.60588644  0.32343190  0.50291150     0.04500
H934        H  0.60621796  0.17370057  0.50405945     0.04500
C935        C  0.94016549  0.20235755  0.48544984     0.03300
C936        C  0.98024331  0.20813217  0.50744891    -0.12900
C937        C  0.52224839  0.20200317  0.48878495     0.00800
C938        C  0.52323283  0.17188903  0.45902567    -0.11400
C939        C  0.98306587  0.15305418  0.44622934     0.03300
C940        C  0.94167638  0.17167568  0.45600091    -0.10800
H941        H  0.97876700  0.21861224  0.53813110     0.08900
H942        H  0.55514325  0.16208743  0.44699937     0.06400
H943        H  0.91097999  0.16138738  0.44204041     0.06300
C944        C  0.69054154  0.20245589  0.51550853     0.03300
C945        C  0.69314061  0.17394685  0.54747314    -0.12900
C946        C  0.73514817  0.15709404  0.55853753     0.00800
C947        C  0.77455142  0.17550435  0.54382792    -0.11400
C948        C  0.77267198  0.20315659  0.51156446     0.03300
C949        C  0.73035183  0.20823587  0.49283808    -0.10800
H950        H  0.66280173  0.16399355  0.56248819     0.08900
H951        H  0.80677799  0.16719768  0.55649616     0.06400
H952        H  0.72840212  0.21923836  0.46214218     0.06300
C953        C  0.52224077  0.29526717  0.48822291     0.03300
C954        C  0.98044065  0.28976520  0.50757111    -0.12900
C955        C  0.94015842  0.29610584  0.48588495     0.00800
C956        C  0.94167277  0.32661997  0.45575447    -0.11400
C957        C  0.98320489  0.34452494  0.44501430     0.03300
C958        C  0.52322675  0.32518196  0.45772492    -0.10800
H959        H  0.97925056  0.27901296  0.53837923     0.08900
H960        H  0.91089766  0.33724107  0.44193864     0.06400
H961        H  0.55507989  0.33448067  0.44504676     0.06300
C962        C  0.77214357  0.29479234  0.51275958     0.03300
C963        C  0.77301374  0.32129550  0.54559239    -0.12900
C964        C  0.73303079  0.33926668  0.55973729     0.00800
C965        C  0.69151551  0.32248814  0.54789920    -0.11400
C966        C  0.68991952  0.29488226  0.51567209     0.03300
C967        C  0.73015958  0.29015035  0.49340807    -0.10800
H968        H  0.80492991  0.32947358  0.55877247     0.08900
H969        H  0.66077158  0.33196396  0.56241010     0.06400
H970        H  0.72884999  0.28020158  0.46251374     0.06300
C971        C  0.75847185  0.62679377  0.41374868     0.80400
N972        N  0.71836633  0.60650766  0.41366190    -0.77900
C973        C  0.71701068  0.56723888  0.40239472     0.82800
N974        N  0.75435464  0.54940602  0.38973360    -0.77900
C975        C  0.79306807  0.56918969  0.38574995     0.82900
N976        N  0.79605494  0.60838176  0.39817926    -0.79600
C977        C  0.00949594  0.60554220  0.55751057     0.80400
N978        N  0.54629804  0.58989691  0.57698064    -0.77900
C979        C  0.54382806  0.55221129  0.59370915     0.82800
N980        N  0.00590736  0.53108500  0.59069586    -0.77900
C981        C  0.96851142  0.54726514  0.57546093     0.82900
N982        N  0.96975096  0.58502546  0.55922110    -0.79600
C983        C  0.73561453  0.37869320  0.58062674     0.80400
N984        N  0.77553149  0.39896025  0.58020307    -0.77900
C985        C  0.77668166  0.43857418  0.58991389     0.82800
N986        N  0.73920575  0.45697600  0.60153105    -0.77900
C987        C  0.70080974  0.43691306  0.60656589     0.82900
N988        N  0.69812501  0.39732157  0.59571508    -0.79600
C989        C  0.98548045  0.38496989  0.42495393     0.80400
N990        N  0.52524726  0.40563320  0.42485609    -0.77900
C991        C  0.52617128  0.44514903  0.41343957     0.82800
N992        N  0.98839696  0.46298873  0.40105183    -0.77900
C993        C  0.95009441  0.44253455  0.39690614     0.82900
N994        N  0.94793823  0.40310866  0.40911223    -0.79600
In995      In  0.87259755  0.50022530  0.31274778     1.36900
C996        C  0.91827951  0.46221227  0.36967136     0.77700
O997        O  0.93051147  0.49382601  0.60665521    -0.60700
O998        O  0.89456689  0.54940649  0.60258887    -0.51600
C999        C  0.81671743  0.45976866  0.60166289     0.70400
O1000       O  0.84997024  0.44233711  0.61743382    -0.46500
C1001       C  0.82594140  0.54675711  0.36201217     0.75100
O1002       O  0.88488585  0.44545525  0.35375415    -0.58300
O1003       O  0.86024807  0.56092921  0.34482068    -0.48400
O1004       O  0.92648289  0.49750926  0.35693615    -0.54800
C1005       C  0.92850705  0.52926765  0.59248112     0.85300
O1006       O  0.81541833  0.49765338  0.60527498    -0.56700
O1007       O  0.81763882  0.51035802  0.35405486    -0.60000
In1008     In  0.62136661  0.50178368  0.34933727     1.36900
C1009       C  0.57466239  0.53592078  0.62384247     0.77700
O1010       O  0.67602941  0.49477403  0.63996747    -0.60700
O1011       O  0.63634306  0.44246968  0.65026672    -0.51600
C1012       C  0.67676761  0.54471467  0.39271806     0.70400
O1013       O  0.64182779  0.56072851  0.37842595    -0.46500
C1014       C  0.56624885  0.46602572  0.39969806     0.75100
O1015       O  0.60653194  0.55481767  0.63980619    -0.58300
O1016       O  0.60082985  0.44795881  0.38763859    -0.48400
O1017       O  0.56724799  0.50141512  0.63873195    -0.54800
C1018       C  0.66882709  0.45825038  0.63179281     0.85300
O1019       O  0.67931986  0.50681139  0.38929751    -0.56700
O1020       O  0.56393842  0.50308448  0.39042621    -0.60000
C1021       C  0.92909538  0.76800809  0.85683087     0.02400
C1022       C  0.93013230  0.72813417  0.83964835     0.02400
C1023       C  0.88891112  0.70961426  0.82818118    -0.18100
C1024       C  0.84657520  0.72901276  0.83075758     0.02400
C1025       C  0.84558622  0.77009897  0.84418330     0.02400
C1026       C  0.88619870  0.78788223  0.85789001    -0.18100
H1027       H  0.88325759  0.81802381  0.86972881     0.04500
H1028       H  0.88995127  0.67892823  0.81712974     0.04500
C1029       C  0.59685171  0.72691908  0.84456950     0.02400
C1030       C  0.59766277  0.76697116  0.86141959     0.02400
C1031       C  0.64061614  0.78670898  0.86277640    -0.18100
C1032       C  0.68130869  0.76897948  0.84911145     0.02400
C1033       C  0.68038808  0.72800741  0.83574047     0.02400
C1034       C  0.63817603  0.70824898  0.83381933    -0.18100
H1035       H  0.63718203  0.67748071  0.82298061     0.04500
H1036       H  0.64357579  0.81700328  0.87409467     0.04500
C1037       C  0.72202741  0.79585563  0.84148133     0.03300
C1038       C  0.76395923  0.78959507  0.86061750    -0.12900
C1039       C  0.80405739  0.79651937  0.83857182     0.00800
C1040       C  0.80220638  0.82537583  0.80674613    -0.11400
C1041       C  0.76064218  0.84215927  0.79440211     0.03300
C1042       C  0.72079702  0.82443769  0.80975132    -0.10800
H1043       H  0.76533157  0.77413284  0.88951734     0.08900
H1044       H  0.83282045  0.83435220  0.79156656     0.06400
H1045       H  0.68868150  0.83236122  0.79661717     0.06300
C1046       C  0.72217217  0.70681133  0.81982688     0.03300
C1047       C  0.72128401  0.68289737  0.78488686    -0.12900
C1048       C  0.76125993  0.66554703  0.76973597     0.00800
C1049       C  0.80283384  0.68155729  0.78287890    -0.11400
C1050       C  0.80429584  0.70678904  0.81723457     0.03300
C1051       C  0.76400178  0.70975103  0.83932902    -0.10800
H1052       H  0.68948835  0.67561402  0.77102223     0.08900
H1053       H  0.83353358  0.67278075  0.76791893     0.06400
H1054       H  0.76523411  0.71539141  0.87125530     0.06300
C1055       C  0.97172616  0.79071919  0.87085429     0.03300
C1056       C  0.01262531  0.77147772  0.88270800    -0.12900
C1057       C  0.55476836  0.79019372  0.87410335     0.00800
C1058       C  0.55410159  0.83280078  0.87563243    -0.11400
C1059       C  0.01342708  0.85384802  0.87910828     0.03300
C1060       C  0.97317101  0.83328170  0.87101702    -0.10800
H1061       H  0.51184791  0.74091777  0.89424587     0.08900
H1062       H  0.58437527  0.85042305  0.87439903     0.06400
H1063       H  0.94339899  0.85101082  0.86584500     0.06300
C1064       C  0.55455051  0.70176007  0.84095402     0.03300
C1065       C  0.01419231  0.71676560  0.82316553    -0.12900
C1066       C  0.97220291  0.70240112  0.83792908     0.00800
C1067       C  0.97165754  0.66520074  0.85871292    -0.11400
C1068       C  0.01154584  0.64527351  0.86956012     0.03300
C1069       C  0.55269372  0.66461683  0.86208097    -0.10800
H1070       H  0.51516160  0.74494009  0.80621650     0.08900
H1071       H  0.93993570  0.65305411  0.86905502     0.06400
H1072       H  0.58318185  0.65178208  0.87449852     0.06300
C1073       C  0.75758892  0.87794676  0.76630258     0.80400
N1074       N  0.79477151  0.89377832  0.74686209    -0.77900
C1075       C  0.79036997  0.92904083  0.72511390     0.82800
N1076       N  0.75074972  0.94764231  0.72394775    -0.77900
C1077       C  0.71431567  0.93252971  0.74151750     0.82900
N1078       N  0.71693466  0.89705466  0.76221930    -0.79600
C1079       C  0.01256888  0.89635021  0.89281773     0.80400
N1080       N  0.54960055  0.91304984  0.91054306    -0.77900
C1081       C  0.54715156  0.95118055  0.92544686     0.82800
N1082       N  0.00853440  0.97162019  0.92285295    -0.77900
C1083       C  0.97075171  0.95387182  0.91050279     0.82900
N1084       N  0.97245042  0.91590865  0.89562956    -0.79600
C1085       C  0.73866390  0.11796131  0.91388772     0.80400
N1086       N  0.70162036  0.10005797  0.93065915    -0.77900
C1087       C  0.70459761  0.06110496  0.94390927     0.82800
N1088       N  0.74281517  0.04068790  0.93953469    -0.77900
C1089       C  0.77996407  0.05825313  0.92580356     0.82900
N1090       N  0.77865445  0.09751956  0.91371711    -0.79600
C1091       C  0.98498906  0.11239305  0.76054340     0.80400
N1092       N  0.52489631  0.09195719  0.75997384    -0.77900
C1093       C  0.52578948  0.05231904  0.74982064     0.82800
N1094       N  0.98775031  0.03395338  0.73960245    -0.77900
C1095       C  0.94925005  0.05415356  0.73542454     0.82900
N1096       N  0.94716470  0.09387106  0.74606322    -0.79600
In1097     In  0.87409586  0.99568177  0.65131993     1.36900
C1098       C  0.82431158  0.95014813  0.70059637     0.77700
O1099       O  0.92590118  0.99833147  0.69753003    -0.60700
O1100       O  0.88528990  0.05084302  0.69093884    -0.51600
C1101       C  0.93134861  0.96926070  0.93077856     0.70400
O1102       O  0.89937991  0.94724779  0.94254849    -0.46500
C1103       C  0.82002849  0.03682719  0.93785265     0.75100
O1104       O  0.86017127  0.93578262  0.68652337    -0.58300
O1105       O  0.85224032  0.05397416  0.95520857    -0.48400
O1106       O  0.81581145  0.98575820  0.68909029    -0.54800
C1107       C  0.91775629  0.03401806  0.70859898     0.85300
O1108       O  0.93191184  0.00439648  0.94500029    -0.56700
O1109       O  0.81895708  0.99878408  0.94115177    -0.60000
In1110     In  0.62126534  0.99793040  0.68464741     1.36900
C1111       C  0.67220760  0.04068070  0.96945986     0.77700
O1112       O  0.67557883  0.99244444  0.72870412    -0.60700
O1113       O  0.64098222  0.93822709  0.71356943    -0.51600
C1114       C  0.56523081  0.03208558  0.73430461     0.70400
O1115       O  0.60022864  0.05039553  0.72343319    -0.46500
C1116       C  0.57726833  0.96673357  0.95633038     0.75100
O1117       O  0.63801507  0.05664077  0.98479923    -0.58300
O1118       O  0.60687412  0.94636483  0.97447031    -0.48400
O1119       O  0.67978287  0.00470868  0.98021565    -0.54800
C1120       C  0.67384541  0.95439297  0.73107161     0.85300
O1121       O  0.56223941  0.99575366  0.72319702    -0.56700
O1122       O  0.57053950  0.00143494  0.97043043    -0.60000
C1123       C  0.89783626  0.22745792  0.82626003     0.02400
C1124       C  0.89786565  0.27107749  0.82692469     0.02400
C1125       C  0.85589326  0.29141038  0.83090720    -0.18100
C1126       C  0.81399407  0.27094255  0.83461000     0.02400
C1127       C  0.81404087  0.22766018  0.83369035     0.02400
C1128       C  0.85582460  0.20723772  0.82925641    -0.18100
H1129       H  0.85568785  0.17450701  0.82912224     0.04500
H1130       H  0.85589970  0.32412325  0.83180344     0.04500
C1131       C  0.64772081  0.27033488  0.84035254     0.02400
C1132       C  0.64787197  0.22686828  0.84065420     0.02400
C1133       C  0.60601425  0.20642920  0.83698918    -0.18100
C1134       C  0.56403226  0.22677495  0.83221896     0.02400
C1135       C  0.56397842  0.27033841  0.83189560     0.02400
C1136       C  0.60583047  0.29069689  0.83629824    -0.18100
H1137       H  0.60588553  0.32343137  0.83624801     0.04500
H1138       H  0.60621758  0.17370008  0.83739451     0.04500
C1139       C  0.94016485  0.20235790  0.81878457     0.03300
C1140       C  0.98024205  0.20813215  0.84078472    -0.12900
C1141       C  0.52224788  0.20200277  0.82212056     0.00800
C1142       C  0.52323266  0.17188907  0.79236096    -0.11400
C1143       C  0.98306574  0.15305452  0.77956467     0.03300
C1144       C  0.94167629  0.17167633  0.78933539    -0.10800
H1145       H  0.97876499  0.21861211  0.87146681     0.08900
H1146       H  0.55514331  0.16208746  0.78033498     0.06400
H1147       H  0.91098029  0.16138858  0.77537383     0.06300
C1148       C  0.69054114  0.20245564  0.84884210     0.03300
C1149       C  0.69314100  0.17394668  0.88080666    -0.12900
C1150       C  0.73514867  0.15709375  0.89187019     0.00800
C1151       C  0.77455161  0.17550361  0.87715937    -0.11400
C1152       C  0.77267141  0.20315614  0.84489619     0.03300
C1153       C  0.73035081  0.20823581  0.82617078    -0.10800
H1154       H  0.66280244  0.16399369  0.89582258     0.08900
H1155       H  0.80677848  0.16719684  0.88982695     0.06400
H1156       H  0.72840028  0.21923899  0.79547517     0.06300
C1157       C  0.52224038  0.29526650  0.82155855     0.03300
C1158       C  0.98043960  0.28976519  0.84090808    -0.12900
C1159       C  0.94015785  0.29610600  0.81922118     0.00800
C1160       C  0.94167306  0.32661948  0.78909012    -0.11400
C1161       C  0.98320559  0.34452377  0.77835022     0.03300
C1162       C  0.52322694  0.32518010  0.79105955    -0.10800
H1163       H  0.97924884  0.27901290  0.87171617     0.08900
H1164       H  0.91089843  0.33724040  0.77527353     0.06400
H1165       H  0.55508037  0.33447797  0.77838109     0.06300
C1166       C  0.77214287  0.29479189  0.84609384     0.03300
C1167       C  0.77301351  0.32129394  0.87892751    -0.12900
C1168       C  0.73303083  0.33926474  0.89307340     0.00800
C1169       C  0.69151546  0.32248654  0.88123531    -0.11400
C1170       C  0.68991891  0.29488170  0.84900743     0.03300
C1171       C  0.73015861  0.29015034  0.82674274    -0.10800
H1172       H  0.80492992  0.32947156  0.89210760     0.08900
H1173       H  0.66077161  0.33196202  0.89574693     0.06400
H1174       H  0.72884859  0.28020225  0.79584812     0.06300
C1175       C  0.75847279  0.62679455  0.74708126     0.80400
N1176       N  0.71836688  0.60650903  0.74699400    -0.77900
C1177       C  0.71701067  0.56724033  0.73572650     0.82800
N1178       N  0.75435443  0.54940694  0.72306564    -0.77900
C1179       C  0.79306846  0.56918985  0.71908306     0.82900
N1180       N  0.79605583  0.60838186  0.73151248    -0.79600
C1181       C  0.00949699  0.60554319  0.89084255     0.80400
N1182       N  0.54629965  0.58989721  0.91031173    -0.77900
C1183       C  0.54382942  0.55221156  0.92704028     0.82800
N1184       N  0.00590776  0.53108576  0.92402743    -0.77900
C1185       C  0.96851176  0.54726643  0.90879308     0.82900
N1186       N  0.96975165  0.58502689  0.89255345    -0.79600
C1187       C  0.73561488  0.37869093  0.91396336     0.80400
N1188       N  0.77553181  0.39895803  0.91353936    -0.77900
C1189       C  0.77668188  0.43857215  0.92324952     0.82800
N1190       N  0.73920592  0.45697405  0.93486640    -0.77900
C1191       C  0.70081001  0.43691109  0.93990167     0.82900
N1192       N  0.69812533  0.39731945  0.92905153    -0.79600
C1193       C  0.98548184  0.38496803  0.75828868     0.80400
N1194       N  0.52524905  0.40563081  0.75818937    -0.77900
C1195       C  0.52617317  0.44514656  0.74677246     0.82800
N1196       N  0.98839880  0.46298617  0.73438469    -0.77900
C1197       C  0.95009629  0.44253198  0.73023904     0.82900
N1198       N  0.94793986  0.40310644  0.74244607    -0.79600
In1199     In  0.87259797  0.50022362  0.64608258     1.36900
C1200       C  0.91828133  0.46220980  0.70300436     0.77700
O1201       O  0.93051222  0.49382771  0.93998872    -0.60700
O1202       O  0.89456609  0.54940704  0.93591950    -0.51600
C1203       C  0.81671760  0.45976749  0.93499727     0.70400
O1204       O  0.84997086  0.44233695  0.95076860    -0.46500
C1205       C  0.82594254  0.54675623  0.69534708     0.75100
O1206       O  0.88488451  0.44545442  0.68709075    -0.58300
O1207       O  0.86024797  0.56092834  0.67815361    -0.48400
O1208       O  0.92648701  0.49750539  0.69026645    -0.54800
C1209       C  0.92850723  0.52926879  0.92581327     0.85300
O1210       O  0.81541806  0.49765238  0.93860785    -0.56700
O1211       O  0.81764133  0.51035626  0.68739255    -0.60000
In1212     In  0.62136696  0.50178416  0.68267068     1.36900
C1213       C  0.57466348  0.53592084  0.95717391     0.77700
O1214       O  0.67602791  0.49477373  0.97329926    -0.60700
O1215       O  0.63634430  0.44246854  0.98360349    -0.51600
C1216       C  0.67676732  0.54471620  0.72605068     0.70400
O1217       O  0.64182763  0.56072986  0.71175801    -0.46500
C1218       C  0.56625078  0.46602406  0.73303193     0.75100
O1219       O  0.60653269  0.55481776  0.97313818    -0.58300
O1220       O  0.60083174  0.44795794  0.72097125    -0.48400
O1221       O  0.56724885  0.50141518  0.97206342    -0.54800
C1222       C  0.66882700  0.45824917  0.96512754     0.85300
O1223       O  0.67931935  0.50681275  0.72263144    -0.56700
O1224       O  0.56394001  0.50308316  0.72376152    -0.60000
loop_ 
_geom_bond_atom_site_label_1 
_geom_bond_atom_site_label_2 
_geom_bond_distance 
_geom_bond_site_symmetry_2 
_ccdc_geom_bond_type 
C1            C2   1.442       .  A
C1            C6   1.440       .  A
C1           C35   1.552       .  S
C2            C3   1.428       .  A
C2           C46   1.518       .  S
C3            C4   1.420       .  A
C3            H8   1.083       .  S
C4            C5   1.435       .  A
C4           C30   1.530       .  S
C5            C6   1.424       .  A
C5           C19   1.527       .  S
C6            H7   1.078       .  S
C9           C10   1.443       .  A
C9           C14   1.426       .  A
C9           C44   1.519       .  S
C10          C11   1.441       .  A
C10          C37   1.552       .  S
C11          C12   1.424       .  A
C11          H16   1.077       .  S
C12          C13   1.430       .  A
C12          C17   1.527       .  S
C13          C14   1.422       .  A
C13          C26   1.526       .  S
C14          H15   1.083       .  S
C17          C18   1.416       .  A
C17          C22   1.406       .  A
C18          C19   1.419       .  A
C18          H23   1.079       .  S
C19          C20   1.415       .  A
C20          C21   1.417       .  A
C20          H24   1.083       .  S
C21          C22   1.418       .  A
C21          C53   1.501       .  S
C22          H25   1.083       .  S
C26          C27   1.406       .  A
C26          C31   1.409       .  A
C27          C28   1.417       .  A
C27          H32   1.082       .  S
C28          C29   1.420       .  A
C28         C155   1.493       .  S
C29          C30   1.416       .  A
C29          H33   1.082       .  S
C30          C31   1.411       .  A
C31          H34   1.073       .  S
C35          C36   1.429       .  A
C35          C40   1.410       .  A
C36         C649   1.430       .  A
C36         H653   1.078       .  S
C37          C38   1.412       .  A
C37         C648   1.430       .  A
C38         C651   1.405       .  A
C38          H42   1.077       .  S
C39          C40   1.409       .  A
C39         C650   1.405       .  A
C39          C59   1.482       .  S
C40          H43   1.077       .  S
H41         C648   1.078       .  S
C44          C49   1.409       .  A
C44         C657   1.427       .  A
C45          C46   1.425       .  A
C45         C656   1.427       .  A
C45         H662   1.084       .  S
C46          C47   1.404       .  A
C47          C48   1.405       .  A
C47          H51   1.083       .  S
C48         C661   1.407       .  A
C48         C161   1.487       .  S
C49         C660   1.407       .  A
C49          H52   1.083       .  S
H50         C657   1.084       .  S
C53          N54   1.383       .  A
C53          N58   1.374       .  A
N54          C55   1.371       .  A
C55          C78   1.470       .  S
C55          N56   1.333       .  A
N56          C57   1.329       .  A
C57         C100   1.448       .  S
C57          N58   1.355       .  A
C59          N64   1.364       .  A
C59         N672   1.370       .  A
N60          C61   1.361       .  A
N60         C671   1.370       .  A
C61          C96   1.457       .  S
C61         N674   1.338       .  A
N62          C63   1.338       .  A
N62         C673   1.338       .  A
C63          C81   1.448       .  S
C63          N64   1.354       .  A
C65         C130   1.483       .  S
C65          N66   1.370       .  A
C65          N70   1.372       .  A
N66          C67   1.360       .  A
C67          C91   1.447       .  S
C67          N68   1.334       .  A
N68          C69   1.330       .  A
C69          C83   1.444       .  S
C69          N70   1.357       .  A
C71         C123   1.492       .  S
C71          N76   1.373       .  A
C71         N684   1.370       .  A
N72          C73   1.357       .  A
N72         C683   1.370   1_455  A
C73          C94   1.450       .  S
C73         N686   1.333   1_455  A
N74          C75   1.336       .  A
N74         C685   1.333       .  A
C75          C87   1.458       .  S
C75          N76   1.365       .  A
In77         O79   2.175   1_556  S
In77         O80   2.281   1_566  S
In77         O84   2.327   1_556  S
In77         O86   2.164   1_556  S
In77        O496   2.184   1_565  S
In77        O490   2.261       .  S
In77        O493   2.249   1_565  S
In77        O497   2.187       .  S
C78          O84   1.261       .  A
C78          O86   1.261       .  A
O79          C87   1.263   1_565  A
O80          C87   1.258       .  A
C81          O88   1.258   1_565  A
C81          O82   1.261       .  A
O82        In281   2.261       .  S
C83          O85   1.258       .  A
C83          O89   1.263   1_545  A
O85        In281   2.249   1_545  S
O88        In281   2.184   1_545  S
O89        In281   2.187       .  S
In90         O92   2.185       .  S
In90         O93   2.264       .  S
In90        O101   2.175       .  S
In90         O95   2.256   1_565  S
In90        O505   2.278   1_564  S
In90        O506   2.282   1_554  S
In90        O507   2.157   1_564  S
In90        O510   2.184   1_564  S
C91          O97   1.258       .  A
C91          O99   1.260       .  A
O92         C100   1.262       .  A
O93         C100   1.261       .  A
C94         O101   1.264   1_545  A
C94          O95   1.259       .  A
C96          O98   1.259       .  A
C96         O102   1.259   1_565  A
O97        In294   2.278   1_545  S
O98        In294   2.282       .  S
O99        In294   2.157   1_545  S
O102       In294   2.184   1_545  S
C103        C104   1.444       .  A
C103        C108   1.425       .  A
C103        C119   1.533       .  S
C104        C105   1.428       .  A
C104        C139   1.531       .  S
C105        C106   1.428       .  A
C105        H110   1.083       .  S
C106        C107   1.433       .  A
C106        C146   1.527       .  S
C107        C108   1.426       .  A
C107        C132   1.522       .  S
C108        H109   1.083       .  S
C111        C112   1.439       .  A
C111        C116   1.426       .  A
C111        C150   1.528       .  S
C112        C113   1.427       .  A
C112        C128   1.531       .  S
C113        C114   1.430       .  A
C113        H118   1.083       .  S
C114        C115   1.442       .  A
C114        C121   1.532       .  S
C115        C116   1.428       .  A
C115        C137   1.531       .  S
C116        H117   1.083       .  S
C119        C120   1.414       .  A
C119        C124   1.413       .  A
C120        C733   1.413       .  A
C120        H125   1.075       .  S
C121        C122   1.407       .  A
C121        C732   1.413   1_455  A
C122        C735   1.418   1_455  A
C122        H126   1.083       .  S
C123        C124   1.419       .  A
C123        C734   1.418       .  A
C124        H127   1.083       .  S
C128        C129   1.411       .  A
C128        C133   1.417       .  A
C129        C130   1.419       .  A
C129        H134   1.083       .  S
C130        C131   1.410       .  A
C131        C132   1.399       .  A
C131        H135   1.083       .  S
C132        C133   1.416       .  A
C133        H136   1.075       .  S
C137        C142   1.406       .  A
C137        C750   1.413   1_455  A
C138        C139   1.414       .  A
C138        C749   1.413       .  A
C138        H143   1.075       .  S
C139        C140   1.412       .  A
C140        C141   1.418       .  A
C140        H144   1.083       .  S
C141        C754   1.417       .  A
C141        C173   1.490       .  S
C142        C753   1.417   1_455  A
C142        H145   1.083       .  S
C146        C147   1.401       .  A
C146        C151   1.416       .  A
C147        C148   1.414       .  A
C147        H152   1.083       .  S
C148        C149   1.415       .  A
C148        C167   1.484       .  S
C149        C150   1.410       .  A
C149        H153   1.083       .  S
C150        C151   1.418       .  A
C151        H154   1.076       .  S
C155        N156   1.373       .  A
C155        N160   1.378       .  A
N156        C157   1.356       .  A
C157        C196   1.452       .  S
C157        N158   1.330       .  A
N158        C159   1.335       .  A
C159        C185   1.462       .  S
C159        N160   1.367       .  A
C161        N166   1.369       .  A
C161        N774   1.372       .  A
N162        C163   1.362       .  A
N162        C773   1.372       .  A
C163        C193   1.455       .  S
C163        N776   1.335       .  A
N164        C165   1.334       .  A
N164        C775   1.335       .  A
C165        C189   1.446       .  S
C165        N166   1.356       .  A
C167        N168   1.368       .  A
C167        N172   1.373       .  A
N168        C169   1.353       .  A
C169        C183   1.442       .  S
C169        N170   1.331       .  A
N170        C171   1.335       .  A
C171        C202   1.454       .  S
C171        N172   1.364       .  A
C173        N178   1.372       .  A
C173        N786   1.371       .  A
N174        C175   1.358       .  A
N174        C785   1.371   1_455  A
C175        C198   1.453       .  S
C175        N788   1.335   1_455  A
N176        C177   1.337       .  A
N176        C787   1.335       .  A
C177        C180   1.457       .  S
C177        N178   1.364       .  A
In179       O186   2.282   1_556  S
In179       O187   2.309   1_556  S
In179       O188   2.173   1_556  S
In179       O191   2.162   1_556  S
In179       O589   2.176       .  S
In179       O590   2.259       .  S
In179       O598   2.177       .  S
In179       O592   2.249       .  S
C180        O186   1.259       .  A
C180        O188   1.262       .  A
O181       In383   2.176       .  S
O181        C189   1.260       .  A
O182       In383   2.259       .  S
O182        C189   1.259       .  A
C183        O190   1.261       .  A
C183        O184   1.258       .  A
O184       In383   2.249       .  S
C185        O187   1.260       .  A
C185        O191   1.260       .  A
O190       In383   2.177       .  S
In192       O203   2.183       .  S
In192       O197   2.267       .  S
In192       O200   2.260       .  S
In192       O204   2.187       .  S
In192       O602   2.170   1_554  S
In192       O603   2.288   1_554  S
In192       O607   2.288   1_554  S
In192       O609   2.172   1_554  S
C193        O199   1.258       .  A
C193        O201   1.259       .  A
O194       In396   2.170       .  S
O194        C202   1.260       .  A
O195       In396   2.288       .  S
O195        C202   1.257       .  A
C196        O203   1.263       .  A
C196        O197   1.259       .  A
C198        O200   1.259       .  A
C198        O204   1.263       .  A
O199       In396   2.288       .  S
O201       In396   2.172       .  S
C205        C206   1.442       .  A
C205        C210   1.440       .  A
C205        C239   1.552       .  S
C206        C207   1.428       .  A
C206        C250   1.518       .  S
C207        C208   1.420       .  A
C207        H212   1.083       .  S
C208        C209   1.435       .  A
C208        C234   1.530       .  S
C209        C210   1.424       .  A
C209        C223   1.527       .  S
C210        H211   1.078       .  S
C213        C214   1.443       .  A
C213        C218   1.426       .  A
C213        C248   1.519       .  S
C214        C215   1.441       .  A
C214        C241   1.552       .  S
C215        C216   1.424       .  A
C215        H220   1.077       .  S
C216        C217   1.430       .  A
C216        C221   1.527       .  S
C217        C218   1.422       .  A
C217        C230   1.526       .  S
C218        H219   1.083       .  S
C221        C222   1.416       .  A
C221        C226   1.406       .  A
C222        C223   1.419       .  A
C222        H227   1.079       .  S
C223        C224   1.415       .  A
C224        C225   1.417       .  A
C224        H228   1.083       .  S
C225        C226   1.418       .  A
C225        C257   1.501       .  S
C226        H229   1.083       .  S
C230        C231   1.406       .  A
C230        C235   1.409       .  A
C231        C232   1.417       .  A
C231        H236   1.082       .  S
C232        C233   1.420       .  A
C232        C359   1.493       .  S
C233        C234   1.416       .  A
C233        H237   1.082       .  S
C234        C235   1.411       .  A
C235        H238   1.073       .  S
C239        C240   1.429       .  A
C239        C244   1.410       .  A
C240        C853   1.430       .  A
C240        H857   1.078       .  S
C241        C852   1.430       .  A
C241        C242   1.412       .  A
C242        C855   1.405       .  A
C242        H246   1.077       .  S
C243        C854   1.405       .  A
C243        C244   1.409       .  A
C243        C263   1.482       .  S
C244        H247   1.077       .  S
H245        C852   1.078       .  S
C248        C861   1.427       .  A
C248        C253   1.409       .  A
C249        C860   1.427       .  A
C249        C250   1.425       .  A
C249        H866   1.084       .  S
C250        C251   1.404       .  A
C251        C252   1.405       .  A
C251        H255   1.083       .  S
C252        C865   1.407       .  A
C252        C365   1.487       .  S
C253        C864   1.407       .  A
C253        H256   1.083       .  S
H254        C861   1.084       .  S
C257        N258   1.383       .  A
C257        N262   1.374       .  A
N258        C259   1.371       .  A
C259        C282   1.470       .  S
C259        N260   1.333       .  A
N260        C261   1.329       .  A
C261        C304   1.448       .  S
C261        N262   1.355       .  A
C263        N876   1.370       .  A
C263        N268   1.364       .  A
N264        C875   1.370       .  A
N264        C265   1.361       .  A
C265        C300   1.457       .  S
C265        N878   1.338       .  A
N266        C877   1.338       .  A
N266        C267   1.338       .  A
C267        C285   1.448       .  S
C267        N268   1.354       .  A
C269        C334   1.483       .  S
C269        N270   1.370       .  A
C269        N274   1.372       .  A
N270        C271   1.360       .  A
C271        C295   1.447       .  S
C271        N272   1.334       .  A
N272        C273   1.330       .  A
C273        C287   1.444       .  S
C273        N274   1.357       .  A
C275        C327   1.492       .  S
C275        N888   1.370       .  A
C275        N280   1.373       .  A
N276        C887   1.370   1_455  A
N276        C277   1.357       .  A
C277        C298   1.450       .  S
C277        N890   1.333   1_455  A
N278        C889   1.333       .  A
N278        C279   1.336       .  A
C279        C291   1.458       .  S
C279        N280   1.365       .  A
In281       O283   2.175       .  S
In281       O284   2.281   1_565  S
In281       O288   2.327       .  S
In281       O290   2.164       .  S
C282        O288   1.261       .  A
C282        O290   1.261       .  A
O283        C291   1.263   1_565  A
O284        C291   1.258       .  A
C285        O292   1.258   1_565  A
C285        O286   1.261       .  A
O286       In485   2.261       .  S
C287        O289   1.258       .  A
C287        O293   1.263   1_545  A
O289       In485   2.249   1_545  S
O292       In485   2.184   1_545  S
O293       In485   2.187       .  S
In294       O296   2.185       .  S
In294       O297   2.264       .  S
In294       O305   2.175       .  S
In294       O299   2.256   1_565  S
C295        O301   1.258       .  A
C295        O303   1.260       .  A
O296        C304   1.262       .  A
O297        C304   1.261       .  A
C298        O305   1.264   1_545  A
C298        O299   1.259       .  A
C300        O302   1.259       .  A
C300        O306   1.259   1_565  A
O301       In498   2.278   1_545  S
O302       In498   2.282       .  S
O303       In498   2.157   1_545  S
O306       In498   2.184   1_545  S
C307        C308   1.444       .  A
C307        C312   1.425       .  A
C307        C323   1.533       .  S
C308        C309   1.428       .  A
C308        C343   1.531       .  S
C309        C310   1.428       .  A
C309        H314   1.083       .  S
C310        C311   1.433       .  A
C310        C350   1.527       .  S
C311        C312   1.426       .  A
C311        C336   1.522       .  S
C312        H313   1.083       .  S
C315        C316   1.439       .  A
C315        C320   1.426       .  A
C315        C354   1.528       .  S
C316        C317   1.427       .  A
C316        C332   1.531       .  S
C317        C318   1.430       .  A
C317        H322   1.083       .  S
C318        C319   1.442       .  A
C318        C325   1.532       .  S
C319        C320   1.428       .  A
C319        C341   1.531       .  S
C320        H321   1.083       .  S
C323        C324   1.414       .  A
C323        C328   1.413       .  A
C324        C937   1.413       .  A
C324        H329   1.075       .  S
C325        C936   1.413   1_455  A
C325        C326   1.407       .  A
C326        C939   1.418   1_455  A
C326        H330   1.083       .  S
C327        C938   1.418       .  A
C327        C328   1.419       .  A
C328        H331   1.083       .  S
C332        C333   1.411       .  A
C332        C337   1.417       .  A
C333        C334   1.419       .  A
C333        H338   1.083       .  S
C334        C335   1.410       .  A
C335        C336   1.399       .  A
C335        H339   1.083       .  S
C336        C337   1.416       .  A
C337        H340   1.075       .  S
C341        C954   1.413   1_455  A
C341        C346   1.406       .  A
C342        C953   1.413       .  A
C342        C343   1.414       .  A
C342        H347   1.075       .  S
C343        C344   1.412       .  A
C344        C345   1.418       .  A
C344        H348   1.083       .  S
C345        C958   1.417       .  A
C345        C377   1.490       .  S
C346        C957   1.417   1_455  A
C346        H349   1.083       .  S
C350        C351   1.401       .  A
C350        C355   1.416       .  A
C351        C352   1.414       .  A
C351        H356   1.083       .  S
C352        C353   1.415       .  A
C352        C371   1.484       .  S
C353        C354   1.410       .  A
C353        H357   1.083       .  S
C354        C355   1.418       .  A
C355        H358   1.076       .  S
C359        N360   1.373       .  A
C359        N364   1.378       .  A
N360        C361   1.356       .  A
C361        C400   1.452       .  S
C361        N362   1.330       .  A
N362        C363   1.335       .  A
C363        C389   1.462       .  S
C363        N364   1.367       .  A
C365        N978   1.372       .  A
C365        N370   1.369       .  A
N366        C977   1.372       .  A
N366        C367   1.362       .  A
C367        C397   1.455       .  S
C367        N980   1.335       .  A
N368        C979   1.335       .  A
N368        C369   1.334       .  A
C369        C393   1.446       .  S
C369        N370   1.356       .  A
C371        N372   1.368       .  A
C371        N376   1.373       .  A
N372        C373   1.353       .  A
C373        C387   1.442       .  S
C373        N374   1.331       .  A
N374        C375   1.335       .  A
C375        C406   1.454       .  S
C375        N376   1.364       .  A
C377        N990   1.371       .  A
C377        N382   1.372       .  A
N378        C989   1.371   1_455  A
N378        C379   1.358       .  A
C379        C402   1.453       .  S
C379        N992   1.335   1_455  A
N380        C991   1.335       .  A
N380        C381   1.337       .  A
C381        C384   1.457       .  S
C381        N382   1.364       .  A
In383       O390   2.282       .  S
In383       O391   2.309       .  S
In383       O392   2.173       .  S
In383       O395   2.162       .  S
C384        O390   1.259       .  A
C384        O392   1.262       .  A
O385       In587   2.176       .  S
O385        C393   1.260       .  A
O386       In587   2.259       .  S
O386        C393   1.259       .  A
C387        O394   1.261       .  A
C387        O388   1.258       .  A
O388       In587   2.249       .  S
C389        O391   1.260       .  A
C389        O395   1.260       .  A
O394       In587   2.177       .  S
In396       O407   2.183       .  S
In396       O401   2.267       .  S
In396       O404   2.260       .  S
In396       O408   2.187       .  S
C397        O403   1.258       .  A
C397        O405   1.259       .  A
O398       In600   2.170       .  S
O398        C406   1.260       .  A
O399       In600   2.288       .  S
O399        C406   1.257       .  A
C400        O407   1.263       .  A
C400        O401   1.259       .  A
C402        O404   1.259       .  A
C402        O408   1.263       .  A
O403       In600   2.288       .  S
O405       In600   2.172       .  S
C409        C410   1.442       .  A
C409        C414   1.440       .  A
C409        C443   1.552       .  S
C410        C411   1.428       .  A
C410        C454   1.518       .  S
C411        C412   1.420       .  A
C411        H416   1.083       .  S
C412        C413   1.435       .  A
C412        C438   1.530       .  S
C413        C414   1.424       .  A
C413        C427   1.527       .  S
C414        H415   1.078       .  S
C417        C418   1.443       .  A
C417        C422   1.426       .  A
C417        C452   1.519       .  S
C418        C419   1.441       .  A
C418        C445   1.552       .  S
C419        C420   1.424       .  A
C419        H424   1.077       .  S
C420        C421   1.430       .  A
C420        C425   1.527       .  S
C421        C422   1.422       .  A
C421        C434   1.526       .  S
C422        H423   1.083       .  S
C425        C426   1.416       .  A
C425        C430   1.406       .  A
C426        C427   1.419       .  A
C426        H431   1.079       .  S
C427        C428   1.415       .  A
C428        C429   1.417       .  A
C428        H432   1.083       .  S
C429        C430   1.418       .  A
C429        C461   1.501       .  S
C430        H433   1.083       .  S
C434        C435   1.406       .  A
C434        C439   1.409       .  A
C435        C436   1.417       .  A
C435        H440   1.082       .  S
C436        C437   1.420       .  A
C436        C563   1.493       .  S
C437        C438   1.416       .  A
C437        H441   1.082       .  S
C438        C439   1.411       .  A
C439        H442   1.073       .  S
C443        C444   1.429       .  A
C443        C448   1.410       .  A
C444       C1057   1.430       .  A
C444       H1061   1.078       .  S
C445       C1056   1.430       .  A
C445        C446   1.412       .  A
C446       C1059   1.405       .  A
C446        H450   1.077       .  S
C447       C1058   1.405       .  A
C447        C448   1.409       .  A
C447        C467   1.482       .  S
C448        H451   1.077       .  S
H449       C1056   1.078       .  S
C452       C1065   1.427       .  A
C452        C457   1.409       .  A
C453       C1064   1.427       .  A
C453        C454   1.425       .  A
C453       H1070   1.084       .  S
C454        C455   1.404       .  A
C455        C456   1.405       .  A
C455        H459   1.083       .  S
C456       C1069   1.407       .  A
C456        C569   1.487       .  S
C457       C1068   1.407       .  A
C457        H460   1.083       .  S
H458       C1065   1.084       .  S
C461        N462   1.383       .  A
C461        N466   1.374       .  A
N462        C463   1.371       .  A
C463        C486   1.470       .  S
C463        N464   1.333       .  A
N464        C465   1.329       .  A
C465        C508   1.448       .  S
C465        N466   1.355       .  A
C467       N1080   1.370       .  A
C467        N472   1.364       .  A
N468       C1079   1.370       .  A
N468        C469   1.361       .  A
C469        C504   1.457       .  S
C469       N1082   1.338       .  A
N470       C1081   1.338       .  A
N470        C471   1.338       .  A
C471        C489   1.448       .  S
C471        N472   1.354       .  A
C473        C538   1.483       .  S
C473        N474   1.370       .  A
C473        N478   1.372       .  A
N474        C475   1.360       .  A
C475        C499   1.447       .  S
C475        N476   1.334       .  A
N476        C477   1.330       .  A
C477        C491   1.444       .  S
C477        N478   1.357       .  A
C479        C531   1.492       .  S
C479       N1092   1.370       .  A
C479        N484   1.373       .  A
N480       C1091   1.370   1_455  A
N480        C481   1.357       .  A
C481        C502   1.450       .  S
C481       N1094   1.333   1_455  A
N482       C1093   1.333       .  A
N482        C483   1.336       .  A
C483        C495   1.458       .  S
C483        N484   1.365       .  A
In485       O487   2.175       .  S
In485       O488   2.281   1_565  S
In485       O492   2.327       .  S
In485       O494   2.164       .  S
C486        O492   1.261       .  A
C486        O494   1.261       .  A
O487        C495   1.263   1_565  A
O488        C495   1.258       .  A
C489        O496   1.258   1_565  A
C489        O490   1.261       .  A
C491        O493   1.258       .  A
C491        O497   1.263   1_545  A
In498       O500   2.185       .  S
In498       O501   2.264       .  S
In498       O509   2.175       .  S
In498       O503   2.256   1_565  S
C499        O505   1.258       .  A
C499        O507   1.260       .  A
O500        C508   1.262       .  A
O501        C508   1.261       .  A
C502        O509   1.264   1_545  A
C502        O503   1.259       .  A
C504        O506   1.259       .  A
C504        O510   1.259   1_565  A
C511        C512   1.444       .  A
C511        C516   1.425       .  A
C511        C527   1.533       .  S
C512        C513   1.428       .  A
C512        C547   1.531       .  S
C513        C514   1.428       .  A
C513        H518   1.083       .  S
C514        C515   1.433       .  A
C514        C554   1.527       .  S
C515        C516   1.426       .  A
C515        C540   1.522       .  S
C516        H517   1.083       .  S
C519        C520   1.439       .  A
C519        C524   1.426       .  A
C519        C558   1.528       .  S
C520        C521   1.427       .  A
C520        C536   1.531       .  S
C521        C522   1.430       .  A
C521        H526   1.083       .  S
C522        C523   1.442       .  A
C522        C529   1.532       .  S
C523        C524   1.428       .  A
C523        C545   1.531       .  S
C524        H525   1.083       .  S
C527        C528   1.414       .  A
C527        C532   1.413       .  A
C528       C1141   1.413       .  A
C528        H533   1.075       .  S
C529       C1140   1.413   1_455  A
C529        C530   1.407       .  A
C530       C1143   1.418   1_455  A
C530        H534   1.083       .  S
C531       C1142   1.418       .  A
C531        C532   1.419       .  A
C532        H535   1.083       .  S
C536        C537   1.411       .  A
C536        C541   1.417       .  A
C537        C538   1.419       .  A
C537        H542   1.083       .  S
C538        C539   1.410       .  A
C539        C540   1.399       .  A
C539        H543   1.083       .  S
C540        C541   1.416       .  A
C541        H544   1.075       .  S
C545       C1158   1.413   1_455  A
C545        C550   1.406       .  A
C546       C1157   1.413       .  A
C546        C547   1.414       .  A
C546        H551   1.075       .  S
C547        C548   1.412       .  A
C548        C549   1.418       .  A
C548        H552   1.083       .  S
C549       C1162   1.417       .  A
C549        C581   1.490       .  S
C550       C1161   1.417   1_455  A
C550        H553   1.083       .  S
C554        C555   1.401       .  A
C554        C559   1.416       .  A
C555        C556   1.414       .  A
C555        H560   1.083       .  S
C556        C557   1.415       .  A
C556        C575   1.484       .  S
C557        C558   1.410       .  A
C557        H561   1.083       .  S
C558        C559   1.418       .  A
C559        H562   1.076       .  S
C563        N564   1.373       .  A
C563        N568   1.378       .  A
N564        C565   1.356       .  A
C565        C604   1.452       .  S
C565        N566   1.330       .  A
N566        C567   1.335       .  A
C567        C593   1.462       .  S
C567        N568   1.367       .  A
C569       N1182   1.372       .  A
C569        N574   1.369       .  A
N570       C1181   1.372       .  A
N570        C571   1.362       .  A
C571        C601   1.455       .  S
C571       N1184   1.335       .  A
N572       C1183   1.335       .  A
N572        C573   1.334       .  A
C573        C597   1.446       .  S
C573        N574   1.356       .  A
C575        N576   1.368       .  A
C575        N580   1.373       .  A
N576        C577   1.353       .  A
C577        C591   1.442       .  S
C577        N578   1.331       .  A
N578        C579   1.335       .  A
C579        C610   1.454       .  S
C579        N580   1.364       .  A
C581       N1194   1.371       .  A
C581        N586   1.372       .  A
N582       C1193   1.371   1_455  A
N582        C583   1.358       .  A
C583        C606   1.453       .  S
C583       N1196   1.335   1_455  A
N584       C1195   1.335       .  A
N584        C585   1.337       .  A
C585        C588   1.457       .  S
C585        N586   1.364       .  A
In587       O594   2.282       .  S
In587       O595   2.309       .  S
In587       O596   2.173       .  S
In587       O599   2.162       .  S
C588        O594   1.259       .  A
C588        O596   1.262       .  A
O589        C597   1.260       .  A
O590        C597   1.259       .  A
C591        O598   1.261       .  A
C591        O592   1.258       .  A
C593        O595   1.260       .  A
C593        O599   1.260       .  A
In600       O611   2.183       .  S
In600       O605   2.267       .  S
In600       O608   2.260       .  S
In600       O612   2.187       .  S
C601        O607   1.258       .  A
C601        O609   1.259       .  A
O602        C610   1.260       .  A
O603        C610   1.257       .  A
C604        O611   1.263       .  A
C604        O605   1.259       .  A
C606        O608   1.259       .  A
C606        O612   1.263       .  A
C613        C614   1.442       .  A
C613        C618   1.440       .  A
C613        C647   1.552       .  S
C614        C615   1.428       .  A
C614        C658   1.518       .  S
C615        C616   1.420       .  A
C615        H620   1.083       .  S
C616        C617   1.435       .  A
C616        C642   1.530       .  S
C617        C618   1.424       .  A
C617        C631   1.527       .  S
C618        H619   1.078       .  S
C621        C622   1.443       .  A
C621        C626   1.426       .  A
C621        C656   1.519       .  S
C622        C623   1.441       .  A
C622        C649   1.552       .  S
C623        C624   1.424       .  A
C623        H628   1.077       .  S
C624        C625   1.430       .  A
C624        C629   1.527       .  S
C625        C626   1.422       .  A
C625        C638   1.526       .  S
C626        H627   1.083       .  S
C629        C630   1.416       .  A
C629        C634   1.406       .  A
C630        C631   1.419       .  A
C630        H635   1.079       .  S
C631        C632   1.415       .  A
C632        C633   1.417       .  A
C632        H636   1.083       .  S
C633        C634   1.418       .  A
C633        C665   1.501       .  S
C634        H637   1.083       .  S
C638        C639   1.406       .  A
C638        C643   1.409       .  A
C639        C640   1.417       .  A
C639        H644   1.082       .  S
C640        C641   1.420       .  A
C640        C767   1.493       .  S
C641        C642   1.416       .  A
C641        H645   1.082       .  S
C642        C643   1.411       .  A
C643        H646   1.073       .  S
C647        C648   1.429   1_655  A
C647        C652   1.410       .  A
C649        C650   1.412       .  A
C650        H654   1.077       .  S
C651        C652   1.409   1_455  A
C651        C671   1.482       .  S
C652        H655   1.077       .  S
C656        C661   1.409       .  A
C657        C658   1.425   1_455  A
C658        C659   1.404       .  A
C659        C660   1.405   1_655  A
C659        H663   1.083       .  S
C660        C773   1.487       .  S
C661        H664   1.083       .  S
C665        N666   1.383       .  A
C665        N670   1.374       .  A
N666        C667   1.371       .  A
C667        C690   1.470       .  S
C667        N668   1.333       .  A
N668        C669   1.329       .  A
C669        C712   1.448       .  S
C669        N670   1.355       .  A
C671        N676   1.364   1_455  A
N672        C673   1.361       .  A
C673        C708   1.457       .  S
N674        C675   1.338   1_455  A
C675        C693   1.448       .  S
C675        N676   1.354       .  A
C677        C742   1.483       .  S
C677        N678   1.370       .  A
C677        N682   1.372       .  A
N678        C679   1.360       .  A
C679        C703   1.447       .  S
C679        N680   1.334       .  A
N680        C681   1.330       .  A
C681        C695   1.444       .  S
C681        N682   1.357       .  A
C683        C735   1.492       .  S
C683        N688   1.373       .  A
N684        C685   1.357       .  A
C685        C706   1.450       .  S
N686        C687   1.336       .  A
C687        C699   1.458       .  S
C687        N688   1.365       .  A
In689       O691   2.175   1_556  S
In689       O692   2.281   1_566  S
In689      O1108   2.184   1_565  S
In689      O1102   2.261       .  S
In689       O696   2.327   1_556  S
In689      O1105   2.249   1_565  S
In689       O698   2.164   1_556  S
In689      O1109   2.187       .  S
C690        O696   1.261       .  A
C690        O698   1.261       .  A
O691        C699   1.263   1_565  A
O692        C699   1.258       .  A
C693        O700   1.258   1_565  A
C693        O694   1.261       .  A
O694       In893   2.261       .  S
C695        O697   1.258       .  A
C695        O701   1.263   1_545  A
O697       In893   2.249   1_545  S
O700       In893   2.184   1_545  S
O701       In893   2.187       .  S
In702       O704   2.185       .  S
In702       O705   2.264       .  S
In702       O713   2.175       .  S
In702       O707   2.256   1_565  S
In702      O1117   2.278   1_564  S
In702      O1118   2.282   1_554  S
In702      O1119   2.157   1_564  S
In702      O1122   2.184   1_564  S
C703        O709   1.258       .  A
C703        O711   1.260       .  A
O704        C712   1.262       .  A
O705        C712   1.261       .  A
C706        O713   1.264   1_545  A
C706        O707   1.259       .  A
C708        O710   1.259       .  A
C708        O714   1.259   1_565  A
O709       In906   2.278   1_545  S
O710       In906   2.282       .  S
O711       In906   2.157   1_545  S
O714       In906   2.184   1_545  S
C715        C716   1.444       .  A
C715        C720   1.425       .  A
C715        C731   1.533       .  S
C716        C717   1.428       .  A
C716        C751   1.531       .  S
C717        C718   1.428       .  A
C717        H722   1.083       .  S
C718        C719   1.433       .  A
C718        C758   1.527       .  S
C719        C720   1.426       .  A
C719        C744   1.522       .  S
C720        H721   1.083       .  S
C723        C724   1.439       .  A
C723        C728   1.426       .  A
C723        C762   1.528       .  S
C724        C725   1.427       .  A
C724        C740   1.531       .  S
C725        C726   1.430       .  A
C725        H730   1.083       .  S
C726        C727   1.442       .  A
C726        C733   1.532       .  S
C727        C728   1.428       .  A
C727        C749   1.531       .  S
C728        H729   1.083       .  S
C731        C732   1.414       .  A
C731        C736   1.413       .  A
C732        H737   1.075       .  S
C733        C734   1.407       .  A
C734        H738   1.083       .  S
C735        C736   1.419       .  A
C736        H739   1.083       .  S
C740        C741   1.411       .  A
C740        C745   1.417       .  A
C741        C742   1.419       .  A
C741        H746   1.083       .  S
C742        C743   1.410       .  A
C743        C744   1.399       .  A
C743        H747   1.083       .  S
C744        C745   1.416       .  A
C745        H748   1.075       .  S
C749        C754   1.406       .  A
C750        C751   1.414       .  A
C750        H755   1.075       .  S
C751        C752   1.412       .  A
C752        C753   1.418       .  A
C752        H756   1.083       .  S
C753        C785   1.490       .  S
C754        H757   1.083       .  S
C758        C759   1.401       .  A
C758        C763   1.416       .  A
C759        C760   1.414       .  A
C759        H764   1.083       .  S
C760        C761   1.415       .  A
C760        C779   1.484       .  S
C761        C762   1.410       .  A
C761        H765   1.083       .  S
C762        C763   1.418       .  A
C763        H766   1.076       .  S
C767        N768   1.373       .  A
C767        N772   1.378       .  A
N768        C769   1.356       .  A
C769        C808   1.452       .  S
C769        N770   1.330       .  A
N770        C771   1.335       .  A
C771        C797   1.462       .  S
C771        N772   1.367       .  A
C773        N778   1.369   1_455  A
N774        C775   1.362       .  A
C775        C805   1.455       .  S
N776        C777   1.334   1_455  A
C777        C801   1.446       .  S
C777        N778   1.356       .  A
C779        N780   1.368       .  A
C779        N784   1.373       .  A
N780        C781   1.353       .  A
C781        C795   1.442       .  S
C781        N782   1.331       .  A
N782        C783   1.335       .  A
C783        C814   1.454       .  S
C783        N784   1.364       .  A
C785        N790   1.372       .  A
N786        C787   1.358       .  A
C787        C810   1.453       .  S
N788        C789   1.337       .  A
C789        C792   1.457       .  S
C789        N790   1.364       .  A
In791      O1201   2.176       .  S
In791      O1202   2.259       .  S
In791      O1210   2.177       .  S
In791      O1204   2.249       .  S
In791       O798   2.282   1_556  S
In791       O799   2.309   1_556  S
In791       O800   2.173   1_556  S
In791       O803   2.162   1_556  S
C792        O798   1.259       .  A
C792        O800   1.262       .  A
O793       In995   2.176       .  S
O793        C801   1.260       .  A
O794       In995   2.259       .  S
O794        C801   1.259       .  A
C795        O802   1.261       .  A
C795        O796   1.258       .  A
O796       In995   2.249       .  S
C797        O799   1.260       .  A
C797        O803   1.260       .  A
O802       In995   2.177       .  S
In804      O1214   2.170   1_554  S
In804      O1215   2.288   1_554  S
In804       O815   2.183       .  S
In804       O809   2.267       .  S
In804      O1219   2.288   1_554  S
In804       O812   2.260       .  S
In804      O1221   2.172   1_554  S
In804       O816   2.187       .  S
C805        O811   1.258       .  A
C805        O813   1.259       .  A
O806      In1008   2.170       .  S
O806        C814   1.260       .  A
O807      In1008   2.288       .  S
O807        C814   1.257       .  A
C808        O815   1.263       .  A
C808        O809   1.259       .  A
C810        O812   1.259       .  A
C810        O816   1.263       .  A
O811      In1008   2.288       .  S
O813      In1008   2.172       .  S
C817        C818   1.442       .  A
C817        C822   1.440       .  A
C817        C851   1.552       .  S
C818        C819   1.428       .  A
C818        C862   1.518       .  S
C819        C820   1.420       .  A
C819        H824   1.083       .  S
C820        C821   1.435       .  A
C820        C846   1.530       .  S
C821        C822   1.424       .  A
C821        C835   1.527       .  S
C822        H823   1.078       .  S
C825        C826   1.443       .  A
C825        C830   1.426       .  A
C825        C860   1.519       .  S
C826        C827   1.441       .  A
C826        C853   1.552       .  S
C827        C828   1.424       .  A
C827        H832   1.077       .  S
C828        C829   1.430       .  A
C828        C833   1.527       .  S
C829        C830   1.422       .  A
C829        C842   1.526       .  S
C830        H831   1.083       .  S
C833        C834   1.416       .  A
C833        C838   1.406       .  A
C834        C835   1.419       .  A
C834        H839   1.079       .  S
C835        C836   1.415       .  A
C836        C837   1.417       .  A
C836        H840   1.083       .  S
C837        C838   1.418       .  A
C837        C869   1.501       .  S
C838        H841   1.083       .  S
C842        C843   1.406       .  A
C842        C847   1.409       .  A
C843        C844   1.417       .  A
C843        H848   1.082       .  S
C844        C845   1.420       .  A
C844        C971   1.493       .  S
C845        C846   1.416       .  A
C845        H849   1.082       .  S
C846        C847   1.411       .  A
C847        H850   1.073       .  S
C851        C852   1.429   1_655  A
C851        C856   1.410       .  A
C853        C854   1.412       .  A
C854        H858   1.077       .  S
C855        C856   1.409   1_455  A
C855        C875   1.482       .  S
C856        H859   1.077       .  S
C860        C865   1.409       .  A
C861        C862   1.425   1_455  A
C862        C863   1.404       .  A
C863        C864   1.405   1_655  A
C863        H867   1.083       .  S
C864        C977   1.487       .  S
C865        H868   1.083       .  S
C869        N870   1.383       .  A
C869        N874   1.374       .  A
N870        C871   1.371       .  A
C871        C894   1.470       .  S
C871        N872   1.333       .  A
N872        C873   1.329       .  A
C873        C916   1.448       .  S
C873        N874   1.355       .  A
C875        N880   1.364   1_455  A
N876        C877   1.361       .  A
C877        C912   1.457       .  S
N878        C879   1.338   1_455  A
C879        C897   1.448       .  S
C879        N880   1.354       .  A
C881        C946   1.483       .  S
C881        N882   1.370       .  A
C881        N886   1.372       .  A
N882        C883   1.360       .  A
C883        C907   1.447       .  S
C883        N884   1.334       .  A
N884        C885   1.330       .  A
C885        C899   1.444       .  S
C885        N886   1.357       .  A
C887        C939   1.492       .  S
C887        N892   1.373       .  A
N888        C889   1.357       .  A
C889        C910   1.450       .  S
N890        C891   1.336       .  A
C891        C903   1.458       .  S
C891        N892   1.365       .  A
In893       O895   2.175       .  S
In893       O896   2.281   1_565  S
In893       O900   2.327       .  S
In893       O902   2.164       .  S
C894        O900   1.261       .  A
C894        O902   1.261       .  A
O895        C903   1.263   1_565  A
O896        C903   1.258       .  A
C897        O904   1.258   1_565  A
C897        O898   1.261       .  A
O898      In1097   2.261       .  S
C899        O901   1.258       .  A
C899        O905   1.263   1_545  A
O901      In1097   2.249   1_545  S
O904      In1097   2.184   1_545  S
O905      In1097   2.187       .  S
In906       O908   2.185       .  S
In906       O909   2.264       .  S
In906       O917   2.175       .  S
In906       O911   2.256   1_565  S
C907        O913   1.258       .  A
C907        O915   1.260       .  A
O908        C916   1.262       .  A
O909        C916   1.261       .  A
C910        O917   1.264   1_545  A
C910        O911   1.259       .  A
C912        O914   1.259       .  A
C912        O918   1.259   1_565  A
O913      In1110   2.278   1_545  S
O914      In1110   2.282       .  S
O915      In1110   2.157   1_545  S
O918      In1110   2.184   1_545  S
C919        C920   1.444       .  A
C919        C924   1.425       .  A
C919        C935   1.533       .  S
C920        C921   1.428       .  A
C920        C955   1.531       .  S
C921        C922   1.428       .  A
C921        H926   1.083       .  S
C922        C923   1.433       .  A
C922        C962   1.527       .  S
C923        C924   1.426       .  A
C923        C948   1.522       .  S
C924        H925   1.083       .  S
C927        C928   1.439       .  A
C927        C932   1.426       .  A
C927        C966   1.528       .  S
C928        C929   1.427       .  A
C928        C944   1.531       .  S
C929        C930   1.430       .  A
C929        H934   1.083       .  S
C930        C931   1.442       .  A
C930        C937   1.532       .  S
C931        C932   1.428       .  A
C931        C953   1.531       .  S
C932        H933   1.083       .  S
C935        C936   1.414       .  A
C935        C940   1.413       .  A
C936        H941   1.075       .  S
C937        C938   1.407       .  A
C938        H942   1.083       .  S
C939        C940   1.419       .  A
C940        H943   1.083       .  S
C944        C945   1.411       .  A
C944        C949   1.417       .  A
C945        C946   1.419       .  A
C945        H950   1.083       .  S
C946        C947   1.410       .  A
C947        C948   1.399       .  A
C947        H951   1.083       .  S
C948        C949   1.416       .  A
C949        H952   1.075       .  S
C953        C958   1.406       .  A
C954        C955   1.414       .  A
C954        H959   1.075       .  S
C955        C956   1.412       .  A
C956        C957   1.418       .  A
C956        H960   1.083       .  S
C957        C989   1.490       .  S
C958        H961   1.083       .  S
C962        C963   1.401       .  A
C962        C967   1.416       .  A
C963        C964   1.414       .  A
C963        H968   1.083       .  S
C964        C965   1.415       .  A
C964        C983   1.484       .  S
C965        C966   1.410       .  A
C965        H969   1.083       .  S
C966        C967   1.418       .  A
C967        H970   1.076       .  S
C971        N972   1.373       .  A
C971        N976   1.378       .  A
N972        C973   1.356       .  A
C973       C1012   1.452       .  S
C973        N974   1.330       .  A
N974        C975   1.335       .  A
C975       C1001   1.462       .  S
C975        N976   1.367       .  A
C977        N982   1.369   1_455  A
N978        C979   1.362       .  A
C979       C1009   1.455       .  S
N980        C981   1.334   1_455  A
C981       C1005   1.446       .  S
C981        N982   1.356       .  A
C983        N984   1.368       .  A
C983        N988   1.373       .  A
N984        C985   1.353       .  A
C985        C999   1.442       .  S
C985        N986   1.331       .  A
N986        C987   1.335       .  A
C987       C1018   1.454       .  S
C987        N988   1.364       .  A
C989        N994   1.372       .  A
N990        C991   1.358       .  A
C991       C1014   1.453       .  S
N992        C993   1.337       .  A
C993        C996   1.457       .  S
C993        N994   1.364       .  A
In995      O1002   2.282       .  S
In995      O1003   2.309       .  S
In995      O1004   2.173       .  S
In995      O1007   2.162       .  S
C996       O1002   1.259       .  A
C996       O1004   1.262       .  A
O997      In1199   2.176       .  S
O997       C1005   1.260       .  A
O998      In1199   2.259       .  S
O998       C1005   1.259       .  A
C999       O1006   1.261       .  A
C999       O1000   1.258       .  A
O1000     In1199   2.249       .  S
C1001      O1003   1.260       .  A
C1001      O1007   1.260       .  A
O1006     In1199   2.177       .  S
In1008     O1019   2.183       .  S
In1008     O1013   2.267       .  S
In1008     O1016   2.260       .  S
In1008     O1020   2.187       .  S
C1009      O1015   1.258       .  A
C1009      O1017   1.259       .  A
O1010     In1212   2.170       .  S
O1010      C1018   1.260       .  A
O1011     In1212   2.288       .  S
O1011      C1018   1.257       .  A
C1012      O1019   1.263       .  A
C1012      O1013   1.259       .  A
C1014      O1016   1.259       .  A
C1014      O1020   1.263       .  A
O1015     In1212   2.288       .  S
O1017     In1212   2.172       .  S
C1021      C1022   1.442       .  A
C1021      C1026   1.440       .  A
C1021      C1055   1.552       .  S
C1022      C1023   1.428       .  A
C1022      C1066   1.518       .  S
C1023      C1024   1.420       .  A
C1023      H1028   1.083       .  S
C1024      C1025   1.435       .  A
C1024      C1050   1.530       .  S
C1025      C1026   1.424       .  A
C1025      C1039   1.527       .  S
C1026      H1027   1.078       .  S
C1029      C1030   1.443       .  A
C1029      C1034   1.426       .  A
C1029      C1064   1.519       .  S
C1030      C1031   1.441       .  A
C1030      C1057   1.552       .  S
C1031      C1032   1.424       .  A
C1031      H1036   1.077       .  S
C1032      C1033   1.430       .  A
C1032      C1037   1.527       .  S
C1033      C1034   1.422       .  A
C1033      C1046   1.526       .  S
C1034      H1035   1.083       .  S
C1037      C1038   1.416       .  A
C1037      C1042   1.406       .  A
C1038      C1039   1.419       .  A
C1038      H1043   1.079       .  S
C1039      C1040   1.415       .  A
C1040      C1041   1.417       .  A
C1040      H1044   1.083       .  S
C1041      C1042   1.418       .  A
C1041      C1073   1.501       .  S
C1042      H1045   1.083       .  S
C1046      C1047   1.406       .  A
C1046      C1051   1.409       .  A
C1047      C1048   1.417       .  A
C1047      H1052   1.082       .  S
C1048      C1049   1.420       .  A
C1048      C1175   1.493       .  S
C1049      C1050   1.416       .  A
C1049      H1053   1.082       .  S
C1050      C1051   1.411       .  A
C1051      H1054   1.073       .  S
C1055      C1056   1.429   1_655  A
C1055      C1060   1.410       .  A
C1057      C1058   1.412       .  A
C1058      H1062   1.077       .  S
C1059      C1060   1.409   1_455  A
C1059      C1079   1.482       .  S
C1060      H1063   1.077       .  S
C1064      C1069   1.409       .  A
C1065      C1066   1.425   1_455  A
C1066      C1067   1.404       .  A
C1067      C1068   1.405   1_655  A
C1067      H1071   1.083       .  S
C1068      C1181   1.487       .  S
C1069      H1072   1.083       .  S
C1073      N1074   1.383       .  A
C1073      N1078   1.374       .  A
N1074      C1075   1.371       .  A
C1075      C1098   1.470       .  S
C1075      N1076   1.333       .  A
N1076      C1077   1.329       .  A
C1077      C1120   1.448       .  S
C1077      N1078   1.355       .  A
C1079      N1084   1.364   1_455  A
N1080      C1081   1.361       .  A
C1081      C1116   1.457       .  S
N1082      C1083   1.338   1_455  A
C1083      C1101   1.448       .  S
C1083      N1084   1.354       .  A
C1085      C1150   1.483       .  S
C1085      N1086   1.370       .  A
C1085      N1090   1.372       .  A
N1086      C1087   1.360       .  A
C1087      C1111   1.447       .  S
C1087      N1088   1.334       .  A
N1088      C1089   1.330       .  A
C1089      C1103   1.444       .  S
C1089      N1090   1.357       .  A
C1091      C1143   1.492       .  S
C1091      N1096   1.373       .  A
N1092      C1093   1.357       .  A
C1093      C1114   1.450       .  S
N1094      C1095   1.336       .  A
C1095      C1107   1.458       .  S
C1095      N1096   1.365       .  A
In1097     O1099   2.175       .  S
In1097     O1100   2.281   1_565  S
In1097     O1104   2.327       .  S
In1097     O1106   2.164       .  S
C1098      O1104   1.261       .  A
C1098      O1106   1.261       .  A
O1099      C1107   1.263   1_565  A
O1100      C1107   1.258       .  A
C1101      O1108   1.258   1_565  A
C1101      O1102   1.261       .  A
C1103      O1105   1.258       .  A
C1103      O1109   1.263   1_545  A
In1110     O1112   2.185       .  S
In1110     O1113   2.264       .  S
In1110     O1121   2.175       .  S
In1110     O1115   2.256   1_565  S
C1111      O1117   1.258       .  A
C1111      O1119   1.260       .  A
O1112      C1120   1.262       .  A
O1113      C1120   1.261       .  A
C1114      O1121   1.264   1_545  A
C1114      O1115   1.259       .  A
C1116      O1118   1.259       .  A
C1116      O1122   1.259   1_565  A
C1123      C1124   1.444       .  A
C1123      C1128   1.425       .  A
C1123      C1139   1.533       .  S
C1124      C1125   1.428       .  A
C1124      C1159   1.531       .  S
C1125      C1126   1.428       .  A
C1125      H1130   1.083       .  S
C1126      C1127   1.433       .  A
C1126      C1166   1.527       .  S
C1127      C1128   1.426       .  A
C1127      C1152   1.522       .  S
C1128      H1129   1.083       .  S
C1131      C1132   1.439       .  A
C1131      C1136   1.426       .  A
C1131      C1170   1.528       .  S
C1132      C1133   1.427       .  A
C1132      C1148   1.531       .  S
C1133      C1134   1.430       .  A
C1133      H1138   1.083       .  S
C1134      C1135   1.442       .  A
C1134      C1141   1.532       .  S
C1135      C1136   1.428       .  A
C1135      C1157   1.531       .  S
C1136      H1137   1.083       .  S
C1139      C1140   1.414       .  A
C1139      C1144   1.413       .  A
C1140      H1145   1.075       .  S
C1141      C1142   1.407       .  A
C1142      H1146   1.083       .  S
C1143      C1144   1.419       .  A
C1144      H1147   1.083       .  S
C1148      C1149   1.411       .  A
C1148      C1153   1.417       .  A
C1149      C1150   1.419       .  A
C1149      H1154   1.083       .  S
C1150      C1151   1.410       .  A
C1151      C1152   1.399       .  A
C1151      H1155   1.083       .  S
C1152      C1153   1.416       .  A
C1153      H1156   1.075       .  S
C1157      C1162   1.406       .  A
C1158      C1159   1.414       .  A
C1158      H1163   1.075       .  S
C1159      C1160   1.412       .  A
C1160      C1161   1.418       .  A
C1160      H1164   1.083       .  S
C1161      C1193   1.490       .  S
C1162      H1165   1.083       .  S
C1166      C1167   1.401       .  A
C1166      C1171   1.416       .  A
C1167      C1168   1.414       .  A
C1167      H1172   1.083       .  S
C1168      C1169   1.415       .  A
C1168      C1187   1.484       .  S
C1169      C1170   1.410       .  A
C1169      H1173   1.083       .  S
C1170      C1171   1.418       .  A
C1171      H1174   1.076       .  S
C1175      N1176   1.373       .  A
C1175      N1180   1.378       .  A
N1176      C1177   1.356       .  A
C1177      C1216   1.452       .  S
C1177      N1178   1.330       .  A
N1178      C1179   1.335       .  A
C1179      C1205   1.462       .  S
C1179      N1180   1.367       .  A
C1181      N1186   1.369   1_455  A
N1182      C1183   1.362       .  A
C1183      C1213   1.455       .  S
N1184      C1185   1.334   1_455  A
C1185      C1209   1.446       .  S
C1185      N1186   1.356       .  A
C1187      N1188   1.368       .  A
C1187      N1192   1.373       .  A
N1188      C1189   1.353       .  A
C1189      C1203   1.442       .  S
C1189      N1190   1.331       .  A
N1190      C1191   1.335       .  A
C1191      C1222   1.454       .  S
C1191      N1192   1.364       .  A
C1193      N1198   1.372       .  A
N1194      C1195   1.358       .  A
C1195      C1218   1.453       .  S
N1196      C1197   1.337       .  A
C1197      C1200   1.457       .  S
C1197      N1198   1.364       .  A
In1199     O1206   2.282       .  S
In1199     O1207   2.309       .  S
In1199     O1208   2.173       .  S
In1199     O1211   2.162       .  S
C1200      O1206   1.259       .  A
C1200      O1208   1.262       .  A
O1201      C1209   1.260       .  A
O1202      C1209   1.259       .  A
C1203      O1210   1.261       .  A
C1203      O1204   1.258       .  A
C1205      O1207   1.260       .  A
C1205      O1211   1.260       .  A
In1212     O1223   2.183       .  S
In1212     O1217   2.267       .  S
In1212     O1220   2.260       .  S
In1212     O1224   2.187       .  S
C1213      O1219   1.258       .  A
C1213      O1221   1.259       .  A
O1214      C1222   1.260       .  A
O1215      C1222   1.257       .  A
C1216      O1223   1.263       .  A
C1216      O1217   1.259       .  A
C1218      O1220   1.259       .  A
C1218      O1224   1.263       .  A
