geometry optimzed in LAMMPS
_audit_creation_date              2020-11-30 
_audit_creation_method            'lammps2cif' 
_symmetry_space_group_name_H-M    'P1' 
_symmetry_Int_Tables_number       1 
_symmetry_cell_setting            triclinic 
loop_ 
_symmetry_equiv_pos_as_xyz 
  x,y,z 
_cell_length_a                    43.528665629524205 
_cell_length_b                    43.57191109192662 
_cell_length_c                    43.5692668755353 
_cell_angle_alpha                 90.70336729321977 
_cell_angle_beta                  90.48611908376392 
_cell_angle_gamma                 90.08065404200369 
loop_ 
_atom_site_label 
_atom_site_type_symbol 
_atom_site_fract_x 
_atom_site_fract_y 
_atom_site_fract_z 
_atom_site_charge 
O1          O  0.45650122  0.00131924  0.22364495    -0.74920
O2          O  0.04436342  0.49894941  0.22439348    -0.74950
O3          O  0.49926009  0.45612511  0.22301647    -0.75000
O4          O  0.00157728  0.04399111  0.22497979    -0.75050
O5          O  0.50084713  0.04363251  0.27615388    -0.74990
O6          O  0.99986141  0.45567463  0.27422627    -0.74960
O7          O  0.04441925  0.99923790  0.27559255    -0.74940
O8          O  0.45647395  0.50002391  0.27477717    -0.75000
Ni9        Ni  0.50044324  0.00009822  0.22218865     1.25410
Ni10       Ni  0.00042425  0.49961704  0.27701959     1.25360
C11         C  0.44199890  0.00100866  0.24909145     0.87260
C12         C  0.05885576  0.49891591  0.25009661     0.87190
C13         C  0.99922777  0.44146030  0.24831486     0.87220
C14         C  0.50124921  0.05828161  0.25084241     0.87390
O15         O  0.47444261  0.20549672  0.25207682    -0.74920
O16         O  0.47302949  0.29325945  0.24802774    -0.74950
O17         O  0.47359099  0.24682240  0.20621354    -0.75000
O18         O  0.47378899  0.25155841  0.29405213    -0.75050
O19         O  0.02504231  0.25027095  0.29436424    -0.74990
O20         O  0.02450788  0.25079499  0.20642569    -0.74960
O21         O  0.02401727  0.29426491  0.25124951    -0.74940
O22         O  0.02549088  0.20632267  0.24959673    -0.75000
Ni23       Ni  0.47188047  0.24928074  0.25010767     1.25410
Ni24       Ni  0.02660639  0.25040425  0.25041901     1.25360
C25         C  0.00018006  0.19134801  0.25096724     0.87260
C26         C  0.99830241  0.30836392  0.24924654     0.87190
C27         C  0.49897250  0.24865729  0.19170330     0.87220
C28         C  0.49945687  0.25117041  0.30863203     0.87390
O29         O  0.29391684  0.02679308  0.25121721    -0.74920
O30         O  0.20602109  0.02463798  0.25209852    -0.74950
O31         O  0.25045986  0.02511169  0.29564712    -0.75000
O32         O  0.24941535  0.02644563  0.20777591    -0.75050
O33         O  0.25142408  0.47524868  0.20649309    -0.74990
O34         O  0.25058790  0.47386284  0.29422304    -0.74960
O35         O  0.20702586  0.47361090  0.24926893    -0.74940
O36         O  0.29494960  0.47568338  0.25118354    -0.75000
Ni37       Ni  0.24991212  0.02758324  0.25176425     1.25410
Ni38       Ni  0.25103978  0.47277713  0.25027896     1.25360
C39         C  0.30896435  0.50155383  0.25092192     0.87260
C40         C  0.19195620  0.49881570  0.25046851     0.87190
C41         C  0.25043435  0.99925891  0.30929788     0.87220
C42         C  0.25049778  0.00103148  0.19275802     0.87390
O43         O  0.22503200  0.04412829  0.49951227    -0.74920
O44         O  0.22549995  0.45654024  0.00346265    -0.74950
O45         O  0.22638633  0.00279339  0.04537945    -0.75000
O46         O  0.22476839  0.49753609  0.45755439    -0.75050
O47         O  0.27542008  0.00185812  0.45717205    -0.74990
O48         O  0.27722887  0.49900659  0.04488799    -0.74960
O49         O  0.27639266  0.45658452  0.49919385    -0.74940
O50         O  0.27626039  0.04451633  0.00261844    -0.75000
Ni51       Ni  0.22358560  0.00029219  0.00150261     1.25410
Ni52       Ni  0.27817515  0.50053612  0.50097521     1.25360
C53         C  0.25054435  0.05870858  0.50085163     0.87260
C54         C  0.25094452  0.44204637  0.00128121     0.87190
C55         C  0.25206780  0.50063135  0.05978995     0.87220
C56         C  0.24991044  0.99920836  0.44260237     0.87390
O57         O  0.45562946  0.27566752  0.00153800    -0.74920
O58         O  0.04350380  0.27687942  0.50041605    -0.74950
O59         O  0.49837772  0.27675514  0.45694662    -0.75000
O60         O  0.00026836  0.27572644  0.04494197    -0.75050
O61         O  0.49843173  0.22454443  0.04351476    -0.74990
O62         O  0.00237108  0.22592973  0.45582975    -0.74960
O63         O  0.04409933  0.22584287  0.00212892    -0.74940
O64         O  0.45629436  0.22479481  0.49701559    -0.75000
Ni65       Ni  0.49943510  0.27811076  0.50101535     1.25410
Ni66       Ni  0.00032521  0.22345689  0.99959942     1.25360
C67         C  0.44139250  0.25004236  0.99882973     0.87260
C68         C  0.05831171  0.25150830  0.50143228     0.87190
C69         C  0.00033437  0.25147342  0.44175422     0.87220
C70         C  0.49922098  0.24990890  0.05865406     0.87390
O71         O  0.24958390  0.20726365  0.02476445    -0.74920
O72         O  0.25117515  0.29488759  0.02571380    -0.74950
O73         O  0.20660190  0.25166141  0.02625949    -0.75000
O74         O  0.29459418  0.25031951  0.02420734    -0.75050
O75         O  0.29308063  0.25087759  0.47301934    -0.74990
O76         O  0.20521436  0.25077080  0.47510552    -0.74960
O77         O  0.24923927  0.29472769  0.47454644    -0.74940
O78         O  0.24954613  0.20677227  0.47404577    -0.75000
Ni79       Ni  0.25058729  0.25105184  0.02704903     1.25410
Ni80       Ni  0.24915645  0.25077488  0.47234679     1.25360
C81         C  0.24960354  0.19221752  0.49941769     0.87260
C82         C  0.25026951  0.30926217  0.50028374     0.87190
C83         C  0.19145176  0.25131307  0.00094749     0.87220
C84         C  0.30831140  0.25046201  0.99828943     0.87390
C85         C  0.39063876  0.22573109  0.01197286    -0.02340
C86         C  0.40721925  0.24966795  0.99784240     0.07340
C87         C  0.39073004  0.27329938  0.48277018    -0.02450
C88         C  0.35837892  0.27368145  0.48316100    -0.02460
C89         C  0.34219058  0.24995849  0.99751662     0.07470
C90         C  0.35832823  0.22556053  0.01100019    -0.02650
Br91       Br  0.33609627  0.19071911  0.02637278    -0.01200
Br92       Br  0.41139017  0.19360736  0.03428687    -0.01270
Br93       Br  0.33629030  0.30724273  0.46458073    -0.01230
Br94       Br  0.41187940  0.30457255  0.45990125    -0.01220
C95         C  0.10910575  0.27291259  0.01994361    -0.02340
C96         C  0.09238057  0.25164630  0.50147602     0.07340
C97         C  0.10850263  0.23015122  0.48315153    -0.02450
C98         C  0.14079127  0.22948615  0.48385776    -0.02460
C99         C  0.15746735  0.25133090  0.00148031     0.07470
C100        C  0.14147325  0.27315911  0.01941801    -0.02650
Br101      Br  0.16373086  0.30437149  0.04238955    -0.01200
Br102      Br  0.08799190  0.30082329  0.04735890    -0.01270
Br103      Br  0.16207777  0.19722513  0.46200289    -0.01230
Br104      Br  0.08681950  0.20240170  0.45551004    -0.01220
C105        C  0.22820912  0.35939682  0.48359034    -0.02340
C106        C  0.25045192  0.34317314  0.00067989     0.07340
C107        C  0.27258519  0.35945477  0.01829961    -0.02450
C108        C  0.27243150  0.39175652  0.01893903    -0.02460
C109        C  0.25079721  0.40805302  0.00109966     0.07470
C110        C  0.22875777  0.39167564  0.48326980    -0.02650
Br111      Br  0.20002421  0.41304224  0.45704362    -0.01200
Br112      Br  0.19577252  0.33757230  0.46192598    -0.01270
Br113      Br  0.30096328  0.41333931  0.04578283    -0.01230
Br114      Br  0.30403090  0.33769982  0.04082864    -0.01220
C115        C  0.25707384  0.14154306  0.02714043    -0.02340
C116        C  0.24988506  0.15769548  0.49960807     0.07340
C117        C  0.24293007  0.14018472  0.47249383    -0.02450
C118        C  0.24329449  0.10784553  0.47310615    -0.02460
C119        C  0.25028579  0.09248471  0.50038331     0.07470
C120        C  0.25681514  0.10924510  0.02730322    -0.02650
Br121      Br  0.26409690  0.08748634  0.06500313    -0.01200
Br122      Br  0.26822167  0.16195710  0.06546096    -0.01270
Br123      Br  0.23457993  0.08407600  0.43628013    -0.01230
Br124      Br  0.23211274  0.15888377  0.43378141    -0.01220
C125        C  0.27657763  0.99008674  0.35933366    -0.02340
C126        C  0.25010629  0.99870583  0.34304263     0.07340
C127        C  0.22319680  0.50646820  0.35883845    -0.02450
C128        C  0.22264947  0.50605014  0.39115937    -0.02460
C129        C  0.24961341  0.99824107  0.40815854     0.07470
C130        C  0.27655318  0.98975786  0.39165277    -0.02650
Br131      Br  0.31377798  0.97608102  0.41195308    -0.01200
Br132      Br  0.31325324  0.97920644  0.33693909    -0.01270
Br133      Br  0.18428936  0.51680051  0.41073297    -0.01230
Br134      Br  0.18672070  0.51718335  0.33571538    -0.01220
C135        C  0.22669082  0.48756397  0.14222239    -0.02340
C136        C  0.25087065  0.00128632  0.15899488     0.07340
C137        C  0.27609728  0.01386480  0.14359330    -0.02450
C138        C  0.27729462  0.01273912  0.11129814    -0.02460
C139        C  0.25242415  0.99991961  0.09403883     0.07470
C140        C  0.22749730  0.48653578  0.10995101    -0.02650
Br141      Br  0.19528277  0.46416878  0.08843408    -0.01200
Br142      Br  0.19178644  0.47102385  0.16369816    -0.01270
Br143      Br  0.31373057  0.02859912  0.09186373    -0.01230
Br144      Br  0.30951439  0.03208703  0.16703870    -0.01220
C145        C  0.01324797  0.27594869  0.35890557    -0.02340
C146        C  0.49953652  0.25145673  0.34248477     0.07340
C147        C  0.48598285  0.22709643  0.35838216    -0.02450
C148        C  0.48552565  0.22742122  0.39069348    -0.02460
C149        C  0.00000193  0.25161527  0.40751807     0.07470
C150        C  0.01410749  0.27581426  0.39124916    -0.02650
Br151      Br  0.03622372  0.30832440  0.41248751    -0.01200
Br152      Br  0.02982670  0.31037853  0.33687857    -0.01270
Br153      Br  0.46330791  0.19514990  0.41109120    -0.01230
Br154      Br  0.46908745  0.19248802  0.33570052    -0.01220
C155        C  0.02240771  0.23354963  0.14091499    -0.02340
C156        C  0.49877899  0.24857250  0.15750040     0.07340
C157        C  0.47512412  0.26380407  0.14106433    -0.02450
C158        C  0.47497211  0.26354960  0.10872868    -0.02460
C159        C  0.49899310  0.24934832  0.09250520     0.07470
C160        C  0.02279167  0.23457069  0.10861797    -0.02650
Br161      Br  0.05675823  0.21680447  0.08634102    -0.01200
Br162      Br  0.05370533  0.20996666  0.16172375    -0.01270
Br163      Br  0.44106811  0.28161752  0.08644483    -0.01230
Br164      Br  0.44348673  0.28673104  0.16214141    -0.01220
C165        C  0.10902559  0.02075347  0.23335275    -0.02340
C166        C  0.09279973  0.49870361  0.25023171     0.07340
C167        C  0.10906900  0.47632957  0.26688122    -0.02450
C168        C  0.14143483  0.47613613  0.26689236    -0.02460
C169        C  0.15782567  0.49825298  0.24993977     0.07470
C170        C  0.14133252  0.02024857  0.23275168    -0.02650
Br171      Br  0.16245955  0.04886040  0.20664508    -0.01200
Br172      Br  0.08707342  0.05287406  0.21220538    -0.01270
Br173      Br  0.16275169  0.44590570  0.29123507    -0.01230
Br174      Br  0.08704064  0.44512284  0.28897349    -0.01220
C175        C  0.39113363  0.48160948  0.22956087    -0.02340
C176        C  0.40801634  0.00180474  0.24887959     0.07340
C177        C  0.39230433  0.02271871  0.26812015    -0.02450
C178        C  0.35996541  0.02276684  0.26881612    -0.02460
C179        C  0.34301360  0.00215829  0.24988399     0.07470
C180        C  0.35880610  0.48201997  0.22979350    -0.02650
Br181      Br  0.33648083  0.45590040  0.20109971    -0.01200
Br182      Br  0.41206279  0.45221714  0.20353761    -0.01270
Br183      Br  0.33936417  0.05056326  0.29676478    -0.01230
Br184      Br  0.41495087  0.05249154  0.29265181    -0.01220
C185        C  0.47469515  0.39180690  0.26261508    -0.02340
C186        C  0.99844090  0.40756223  0.24767863     0.07340
C187        C  0.02155762  0.39090158  0.23242454    -0.02450
C188        C  0.02110416  0.35857260  0.23224673    -0.02460
C189        C  0.99793686  0.34253528  0.24824886     0.07470
C190        C  0.47463508  0.35948894  0.26338594    -0.02650
Br191      Br  0.44314296  0.33918391  0.28673035    -0.01200
Br192      Br  0.44134844  0.41461845  0.28095864    -0.01270
Br193      Br  0.05170905  0.33686261  0.20849501    -0.01230
Br194      Br  0.05470703  0.41242595  0.21268414    -0.01220
C195        C  0.47863637  0.10809102  0.23399616    -0.02340
C196        C  0.50089189  0.09223354  0.25133188     0.07340
C197        C  0.02275843  0.10890169  0.26886946    -0.02450
C198        C  0.02227854  0.14125571  0.26920842    -0.02460
C199        C  0.00052773  0.15723818  0.25112854     0.07470
C200        C  0.47883123  0.14038048  0.23333692    -0.02650
Br201      Br  0.45012266  0.16101456  0.20650259    -0.01200
Br202      Br  0.44666422  0.08564095  0.21226926    -0.01270
Br203      Br  0.05063505  0.16326297  0.29585893    -0.01230
Br204      Br  0.05431093  0.08747373  0.29152639    -0.01220
O205        O  0.45650165  0.00132087  0.72364290    -0.74920
O206        O  0.04436387  0.49895106  0.72439571    -0.74950
O207        O  0.49926055  0.45612684  0.72301604    -0.75000
O208        O  0.00157753  0.04399280  0.72498032    -0.75050
O209        O  0.50084538  0.04363368  0.77615439    -0.74990
O210        O  0.99985944  0.45567582  0.77422584    -0.74960
O211        O  0.04441736  0.99923898  0.77559471    -0.74940
O212        O  0.45647207  0.50002512  0.77477507    -0.75000
Ni213      Ni  0.50044375  0.00009992  0.72218871     1.25410
Ni214      Ni  0.00042227  0.49961819  0.77701963     1.25360
C215        C  0.44199817  0.00101011  0.74908872     0.87260
C216        C  0.05885506  0.49891728  0.75009950     0.87190
C217        C  0.99922694  0.44146179  0.74831426     0.87220
C218        C  0.50124840  0.05828299  0.75084308     0.87390
O219        O  0.47444137  0.20549758  0.75208823    -0.74920
O220        O  0.47302741  0.29326021  0.74803616    -0.74950
O221        O  0.47357114  0.24682120  0.70622376    -0.75000
O222        O  0.47380534  0.25156105  0.79406249    -0.75050
O223        O  0.02505852  0.25027275  0.79435416    -0.74990
O224        O  0.02448795  0.25079335  0.70641547    -0.74960
O225        O  0.02401589  0.29426516  0.75123853    -0.74940
O226        O  0.02548864  0.20632300  0.74958807    -0.75000
Ni227      Ni  0.47187876  0.24928160  0.75011860     1.25410
Ni228      Ni  0.02660454  0.25040450  0.75040820     1.25360
C229        C  0.00017831  0.19134875  0.75096883     0.87260
C230        C  0.99830062  0.30836466  0.74924497     0.87190
C231        C  0.49894681  0.24865445  0.69170330     0.87220
C232        C  0.49947899  0.25117292  0.80863223     0.87390
O233        O  0.29391601  0.02679431  0.75121167    -0.74920
O234        O  0.20602076  0.02463933  0.75210385    -0.74950
O235        O  0.25046538  0.02511364  0.79564696    -0.75000
O236        O  0.24940867  0.02644577  0.70777578    -0.75050
O237        O  0.25141707  0.47524881  0.70649364    -0.74990
O238        O  0.25059354  0.47386479  0.79422400    -0.74960
O239        O  0.20702494  0.47361218  0.74927541    -0.74940
O240        O  0.29494911  0.47568461  0.75117859    -0.75000
Ni241      Ni  0.24991156  0.02758436  0.75176409     1.25410
Ni242      Ni  0.25103909  0.47277824  0.75027975     1.25360
C243        C  0.30896364  0.50155520  0.75091595     0.87260
C244        C  0.19195559  0.49881720  0.75047523     0.87190
C245        C  0.25044248  0.99926114  0.80929834     0.87220
C246        C  0.25048834  0.00103129  0.69275818     0.87390
O247        O  0.22505967  0.04413378  0.99951354    -0.74920
O248        O  0.22546884  0.45653630  0.50346146    -0.74950
O249        O  0.22635811  0.00278893  0.54537920    -0.75000
O250        O  0.22479572  0.49754084  0.95755613    -0.75050
O251        O  0.27544732  0.00186505  0.95717169    -0.74990
O252        O  0.27720048  0.49900054  0.54488689    -0.74960
O253        O  0.27642369  0.45659191  0.99919414    -0.74940
O254        O  0.27623268  0.04451059  0.50261746    -0.75000
Ni255      Ni  0.22355705  0.00028758  0.50150156     1.25410
Ni256      Ni  0.27820370  0.50054276  0.00097559     1.25360
C257        C  0.25057218  0.05871418  0.00085322     0.87260
C258        C  0.25091212  0.44204070  0.50127933     0.87190
C259        C  0.25204016  0.50062713  0.55978934     0.87220
C260        C  0.24993638  0.99921475  0.94260312     0.87390
O261        O  0.45555908  0.27565902  0.50153821    -0.74920
O262        O  0.04357414  0.27688680  0.00041496    -0.74950
O263        O  0.49844712  0.27676095  0.95694581    -0.75000
O264        O  0.00019816  0.27571650  0.54494259    -0.75050
O265        O  0.49836124  0.22453456  0.54351295    -0.74990
O266        O  0.00243920  0.22593538  0.95583142    -0.74960
O267        O  0.04402943  0.22583548  0.50212839    -0.74940
O268        O  0.45636407  0.22480293  0.99701884    -0.75000
Ni269      Ni  0.49950548  0.27811867  0.00101455     1.25410
Ni270      Ni  0.00025541  0.22344911  0.49959754     1.25360
C271        C  0.44132240  0.25003392  0.49882754     0.87260
C272        C  0.05838177  0.25151555  0.00143186     0.87190
C273        C  0.00040095  0.25147825  0.94175464     0.87220
C274        C  0.49915232  0.24989828  0.55865350     0.87390
O275        O  0.24951470  0.20725807  0.52476278    -0.74920
O276        O  0.25110807  0.29488176  0.52571156    -0.74950
O277        O  0.20653289  0.25165673  0.52625860    -0.75000
O278        O  0.29452527  0.25031255  0.52420363    -0.75050
O279        O  0.29315112  0.25088402  0.97302307    -0.74990
O280        O  0.20528464  0.25077654  0.97510639    -0.74960
O281        O  0.24930820  0.29473358  0.97454858    -0.74940
O282        O  0.24961583  0.20677844  0.97404747    -0.75000
Ni283      Ni  0.25051847  0.25104612  0.52704688     1.25410
Ni284      Ni  0.24922674  0.25078092  0.97234892     1.25360
C285        C  0.24967073  0.19222335  0.99941916     0.87260
C286        C  0.25033485  0.30926798  0.00028597     0.87190
C287        C  0.19138207  0.25130780  0.50094694     0.87220
C288        C  0.30824158  0.25045497  0.49828520     0.87390
C289        C  0.39056789  0.22571912  0.51196283    -0.02340
C290        C  0.40714907  0.24965925  0.49783838     0.07340
C291        C  0.39079974  0.27330526  0.98277053    -0.02450
C292        C  0.35844863  0.27368729  0.98316223    -0.02460
C293        C  0.34212050  0.24995045  0.49751120     0.07470
C294        C  0.35825743  0.22554912  0.51098924    -0.02650
Br295      Br  0.33602434  0.19070394  0.52635186    -0.01200
Br296      Br  0.41131766  0.19358939  0.53426970    -0.01270
Br297      Br  0.33635974  0.30724653  0.96457865    -0.01230
Br298      Br  0.41194873  0.30457436  0.95989579    -0.01220
C299        C  0.10903567  0.27290703  0.51994275    -0.02340
C300        C  0.09245053  0.25165326  0.00147547     0.07340
C301        C  0.10857229  0.23015910  0.98314969    -0.02450
C302        C  0.14086089  0.22949352  0.98385596    -0.02460
C303        C  0.15739756  0.25132503  0.50148039     0.07470
C304        C  0.14140320  0.27315415  0.51941670    -0.02650
Br305      Br  0.16366058  0.30436868  0.54238537    -0.01200
Br306      Br  0.08792173  0.30081896  0.54735677    -0.01270
Br307      Br  0.16214704  0.19723372  0.96199886    -0.01230
Br308      Br  0.08688862  0.20241160  0.95550669    -0.01220
C309        C  0.22825950  0.35939683  0.98359499    -0.02340
C310        C  0.25039536  0.34316743  0.50067750     0.07340
C311        C  0.27253277  0.35944357  0.51829748    -0.02450
C312        C  0.27238890  0.39174547  0.51893514    -0.02460
C313        C  0.25075991  0.40804733  0.50109464     0.07470
C314        C  0.22879833  0.39167588  0.98327600    -0.02650
Br315      Br  0.20005599  0.41303542  0.95705364    -0.01200
Br316      Br  0.19582862  0.33756367  0.96193076    -0.01270
Br317      Br  0.30092670  0.41332155  0.54577778    -0.01230
Br318      Br  0.30397027  0.33768087  0.54083033    -0.01220
C319        C  0.25702468  0.14153945  0.52713868    -0.02340
C320        C  0.24994340  0.15770118  0.99960885     0.07340
C321        C  0.24298475  0.14019235  0.97249414    -0.02450
C322        C  0.24333513  0.10785298  0.97310758    -0.02460
C323        C  0.25031605  0.09249030  0.00038613     0.07470
C324        C  0.25678142  0.10924131  0.52730012    -0.02650
Br325      Br  0.26407897  0.08748439  0.56499813    -0.01200
Br326      Br  0.26816117  0.16195693  0.56546073    -0.01270
Br327      Br  0.23461610  0.08408560  0.93628125    -0.01230
Br328      Br  0.23218446  0.15889425  0.93377847    -0.01220
C329        C  0.27659258  0.99008878  0.85933110    -0.02340
C330        C  0.25011947  0.99870909  0.84304325     0.07340
C331        C  0.22321308  0.50647484  0.85884251    -0.02450
C332        C  0.22267055  0.50605954  0.89116355    -0.02460
C333        C  0.24963630  0.99824829  0.90815936     0.07470
C334        C  0.27657268  0.98976201  0.89165038    -0.02650
Br335      Br  0.31379877  0.97608368  0.91194711    -0.01200
Br336      Br  0.31326384  0.97920344  0.83693208    -0.01270
Br337      Br  0.18431500  0.51681761  0.91074195    -0.01230
Br338      Br  0.18673393  0.51718984  0.83572394    -0.01220
C339        C  0.22667260  0.48756439  0.64222607    -0.02340
C340        C  0.25085567  0.00128562  0.65899491     0.07340
C341        C  0.27608028  0.01386300  0.64358947    -0.02450
C342        C  0.27727291  0.01273668  0.61129418    -0.02460
C343        C  0.25239918  0.99991820  0.59403842     0.07470
C344        C  0.22747382  0.48653647  0.60995439    -0.02650
Br345      Br  0.19525425  0.46417249  0.58844210    -0.01200
Br346      Br  0.19177161  0.47102467  0.66370740    -0.01270
Br347      Br  0.31370762  0.02859404  0.59185512    -0.01230
Br348      Br  0.30950150  0.03208421  0.66702991    -0.01220
C349        C  0.01329145  0.27594989  0.85890105    -0.02340
C350        C  0.49957218  0.25145901  0.84248510     0.07340
C351        C  0.48602336  0.22709933  0.85838747    -0.02450
C352        C  0.48557779  0.22742419  0.89069901    -0.02460
C353        C  0.00006073  0.25161779  0.90751847     0.07470
C354        C  0.01416236  0.27581553  0.89124449    -0.02650
Br355      Br  0.03628767  0.30832414  0.91247551    -0.01200
Br356      Br  0.02986459  0.31037850  0.83686808    -0.01270
Br357      Br  0.46336580  0.19515385  0.91110445    -0.01230
Br358      Br  0.46911786  0.19249184  0.83571196    -0.01220
C359        C  0.02236156  0.23353900  0.64090811    -0.02340
C360        C  0.49874002  0.24856547  0.65750035     0.07340
C361        C  0.47507997  0.26379637  0.64107104    -0.02450
C362        C  0.47491722  0.26353961  0.60873524    -0.02460
C363        C  0.49893224  0.24933613  0.59250478     0.07470
C364        C  0.02273489  0.23455764  0.60861087    -0.02650
Br365      Br  0.05669341  0.21678778  0.58632443    -0.01200
Br366      Br  0.05366372  0.20995446  0.66170838    -0.01270
Br367      Br  0.44100731  0.28160816  0.58646098    -0.01230
Br368      Br  0.44345026  0.28672542  0.66215733    -0.01220
C369        C  0.10902547  0.02075448  0.73335684    -0.02340
C370        C  0.09279909  0.49870526  0.75023618     0.07340
C371        C  0.10906796  0.47633228  0.76688759    -0.02450
C372        C  0.14143384  0.47613930  0.76690019    -0.02460
C373        C  0.15782508  0.49825514  0.74994684     0.07470
C374        C  0.14133240  0.02024974  0.73275700    -0.02650
Br375      Br  0.16246008  0.04886033  0.70664949    -0.01200
Br376      Br  0.08707402  0.05287396  0.71220698    -0.01270
Br377      Br  0.16275042  0.44591102  0.79124573    -0.01230
Br378      Br  0.08703916  0.44512603  0.78898004    -0.01220
C379        C  0.39113336  0.48161187  0.72955556    -0.02340
C380        C  0.40801561  0.00180648  0.74887543     0.07340
C381        C  0.39230309  0.02272006  0.76811599    -0.02450
C382        C  0.35996418  0.02276834  0.76881089    -0.02460
C383        C  0.34301284  0.00216017  0.74987787     0.07470
C384        C  0.35880578  0.48202230  0.72978741    -0.02650
Br385      Br  0.33648091  0.45590301  0.70109314    -0.01200
Br386      Br  0.41206312  0.45222034  0.70353192    -0.01270
Br387      Br  0.33936229  0.05056428  0.79675962    -0.01230
Br388      Br  0.41494892  0.05249199  0.79264948    -0.01220
C389        C  0.47469290  0.39180855  0.76261221    -0.02340
C390        C  0.99843979  0.40756375  0.74767762     0.07340
C391        C  0.02155722  0.39090314  0.73242479    -0.02450
C392        C  0.02110320  0.35857413  0.73224598    -0.02460
C393        C  0.99793501  0.34253646  0.74824703     0.07470
C394        C  0.47463255  0.35949057  0.76338313    -0.02650
Br395      Br  0.44313847  0.33918712  0.78672646    -0.01200
Br396      Br  0.44134503  0.41462062  0.78095318    -0.01270
Br397      Br  0.05170896  0.33686560  0.70849393    -0.01230
Br398      Br  0.05470851  0.41242785  0.71268768    -0.01220
C399        C  0.47863353  0.10809225  0.73399935    -0.02340
C400        C  0.50089081  0.09223483  0.75133289     0.07340
C401        C  0.02275888  0.10890294  0.76886857    -0.02450
C402        C  0.02227923  0.14125694  0.76920718    -0.02460
C403        C  0.00052601  0.15723919  0.75113021     0.07470
C404        C  0.47882754  0.14038173  0.73334109    -0.02650
Br405      Br  0.45011505  0.16101673  0.70651172    -0.01200
Br406      Br  0.44666069  0.08564200  0.71227378    -0.01270
Br407      Br  0.05063979  0.16326497  0.79585264    -0.01230
Br408      Br  0.05431277  0.08747490  0.79152339    -0.01220
O409        O  0.45650122  0.50131924  0.22364495    -0.74920
O410        O  0.04436342  0.99894941  0.22439349    -0.74950
O411        O  0.49926009  0.95612511  0.22301647    -0.75000
O412        O  0.00157727  0.54399110  0.22497979    -0.75050
O413        O  0.50084713  0.54363252  0.27615387    -0.74990
O414        O  0.99986141  0.95567462  0.27422627    -0.74960
O415        O  0.04441926  0.49923790  0.27559255    -0.74940
O416        O  0.45647395  0.00002391  0.27477717    -0.75000
Ni417      Ni  0.50044324  0.50009822  0.22218865     1.25410
Ni418      Ni  0.00042425  0.99961704  0.27701959     1.25360
C419        C  0.44199890  0.50100865  0.24909145     0.87260
C420        C  0.05885576  0.99891590  0.25009661     0.87190
C421        C  0.99922777  0.94146030  0.24831486     0.87220
C422        C  0.50124921  0.55828161  0.25084241     0.87390
O423        O  0.47444261  0.70549672  0.25207681    -0.74920
O424        O  0.47302949  0.79325945  0.24802772    -0.74950
O425        O  0.47359100  0.74682240  0.20621353    -0.75000
O426        O  0.47378900  0.75155841  0.29405211    -0.75050
O427        O  0.02504231  0.75027095  0.29436422    -0.74990
O428        O  0.02450788  0.75079499  0.20642567    -0.74960
O429        O  0.02401727  0.79426491  0.25124950    -0.74940
O430        O  0.02549088  0.70632267  0.24959671    -0.75000
Ni431      Ni  0.47188047  0.74928074  0.25010766     1.25410
Ni432      Ni  0.02660639  0.75040425  0.25041900     1.25360
C433        C  0.00018006  0.69134801  0.25096723     0.87260
C434        C  0.99830241  0.80836392  0.24924653     0.87190
C435        C  0.49897251  0.74865729  0.19170329     0.87220
C436        C  0.49945688  0.75117041  0.30863202     0.87390
O437        O  0.29391684  0.52679307  0.25121720    -0.74920
O438        O  0.20602109  0.52463798  0.25209850    -0.74950
O439        O  0.25045986  0.52511168  0.29564711    -0.75000
O440        O  0.24941535  0.52644563  0.20777590    -0.75050
O441        O  0.25142409  0.97524869  0.20649310    -0.74990
O442        O  0.25058790  0.97386285  0.29422306    -0.74960
O443        O  0.20702586  0.97361091  0.24926895    -0.74940
O444        O  0.29494961  0.97568340  0.25118356    -0.75000
Ni445      Ni  0.24991212  0.52758323  0.25176424     1.25410
Ni446      Ni  0.25103978  0.97277714  0.25027898     1.25360
C447        C  0.30896435  0.00155385  0.25092194     0.87260
C448        C  0.19195620  0.99881570  0.25046852     0.87190
C449        C  0.25043435  0.49925889  0.30929786     0.87220
C450        C  0.25049778  0.50103147  0.19275800     0.87390
O451        O  0.22503200  0.54412829  0.49951225    -0.74920
O452        O  0.22549996  0.95654024  0.00346267    -0.74950
O453        O  0.22638631  0.50279339  0.04537943    -0.75000
O454        O  0.22476840  0.99753609  0.45755440    -0.75050
O455        O  0.27542008  0.50185812  0.45717202    -0.74990
O456        O  0.27722889  0.99900659  0.04488802    -0.74960
O457        O  0.27639266  0.95658452  0.49919387    -0.74940
O458        O  0.27626037  0.54451633  0.00261842    -0.75000
Ni459      Ni  0.22358558  0.50029219  0.00150259     1.25410
Ni460      Ni  0.27817515  0.00053612  0.50097523     1.25360
C461        C  0.25054435  0.55870858  0.50085161     0.87260
C462        C  0.25094453  0.94204638  0.00128122     0.87190
C463        C  0.25206781  0.00063135  0.05978997     0.87220
C464        C  0.24991043  0.49920835  0.44260236     0.87390
O465        O  0.45562946  0.77566753  0.00153799    -0.74920
O466        O  0.04350380  0.77687941  0.50041604    -0.74950
O467        O  0.49837772  0.77675514  0.45694660    -0.75000
O468        O  0.00026836  0.77572644  0.04494196    -0.75050
O469        O  0.49843173  0.72454443  0.04351475    -0.74990
O470        O  0.00237108  0.72592973  0.45582973    -0.74960
O471        O  0.04409933  0.72584288  0.00212890    -0.74940
O472        O  0.45629436  0.72479481  0.49701558    -0.75000
Ni473      Ni  0.49943510  0.77811076  0.50101534     1.25410
Ni474      Ni  0.00032520  0.72345690  0.99959940     1.25360
C475        C  0.44139249  0.75004236  0.99882972     0.87260
C476        C  0.05831171  0.75150830  0.50143226     0.87190
C477        C  0.00033437  0.75147342  0.44175420     0.87220
C478        C  0.49922098  0.74990891  0.05865404     0.87390
O479        O  0.24958389  0.70726365  0.02476444    -0.74920
O480        O  0.25117515  0.79488759  0.02571380    -0.74950
O481        O  0.20660190  0.75166141  0.02625949    -0.75000
O482        O  0.29459417  0.75031951  0.02420734    -0.75050
O483        O  0.29308062  0.75087759  0.47301934    -0.74990
O484        O  0.20521436  0.75077080  0.47510552    -0.74960
O485        O  0.24923927  0.79472769  0.47454645    -0.74940
O486        O  0.24954613  0.70677228  0.47404576    -0.75000
Ni487      Ni  0.25058728  0.75105184  0.02704902     1.25410
Ni488      Ni  0.24915645  0.75077488  0.47234679     1.25360
C489        C  0.24960354  0.69221752  0.49941769     0.87260
C490        C  0.25026950  0.80926217  0.50028375     0.87190
C491        C  0.19145175  0.75131308  0.00094748     0.87220
C492        C  0.30831140  0.75046201  0.99828943     0.87390
C493        C  0.39063876  0.72573110  0.01197287    -0.02340
C494        C  0.40721924  0.74966795  0.99784240     0.07340
C495        C  0.39073003  0.77329939  0.48277017    -0.02450
C496        C  0.35837892  0.77368145  0.48316100    -0.02460
C497        C  0.34219057  0.74995850  0.99751662     0.07470
C498        C  0.35832823  0.72556054  0.01100020    -0.02650
Br499      Br  0.33609627  0.69071912  0.02637280    -0.01200
Br500      Br  0.41139017  0.69360737  0.03428688    -0.01270
Br501      Br  0.33629030  0.80724273  0.46458073    -0.01230
Br502      Br  0.41187939  0.80457255  0.45990124    -0.01220
C503        C  0.10910574  0.77291260  0.01994360    -0.02340
C504        C  0.09238056  0.75164629  0.50147601     0.07340
C505        C  0.10850263  0.73015121  0.48315152    -0.02450
C506        C  0.14079127  0.72948614  0.48385775    -0.02460
C507        C  0.15746735  0.75133090  0.00148030     0.07470
C508        C  0.14147324  0.77315911  0.01941800    -0.02650
Br509      Br  0.16373085  0.80437149  0.04238955    -0.01200
Br510      Br  0.08799190  0.80082329  0.04735889    -0.01270
Br511      Br  0.16207777  0.69722512  0.46200289    -0.01230
Br512      Br  0.08681950  0.70240169  0.45551003    -0.01220
C513        C  0.22820911  0.85939682  0.48359035    -0.02340
C514        C  0.25045192  0.84317314  0.00067990     0.07340
C515        C  0.27258520  0.85945477  0.01829962    -0.02450
C516        C  0.27243150  0.89175651  0.01893904    -0.02460
C517        C  0.25079722  0.90805303  0.00109967     0.07470
C518        C  0.22875776  0.89167564  0.48326981    -0.02650
Br519      Br  0.20002421  0.91304225  0.45704364    -0.01200
Br520      Br  0.19577251  0.83757230  0.46192599    -0.01270
Br521      Br  0.30096329  0.91333930  0.04578284    -0.01230
Br522      Br  0.30403090  0.83769981  0.04082864    -0.01220
C523        C  0.25707382  0.64154306  0.02714042    -0.02340
C524        C  0.24988506  0.65769548  0.49960806     0.07340
C525        C  0.24293008  0.64018472  0.47249381    -0.02450
C526        C  0.24329450  0.60784553  0.47310614    -0.02460
C527        C  0.25028578  0.59248471  0.50038329     0.07470
C528        C  0.25681511  0.60924509  0.02730321    -0.02650
Br529      Br  0.26409686  0.58748633  0.06500311    -0.01200
Br530      Br  0.26822165  0.66195709  0.06546095    -0.01270
Br531      Br  0.23457997  0.58407601  0.43628010    -0.01230
Br532      Br  0.23211276  0.65888378  0.43378139    -0.01220
C533        C  0.27657761  0.49008667  0.35933365    -0.02340
C534        C  0.25010628  0.49870582  0.34304262     0.07340
C535        C  0.22319679  0.00646816  0.35883847    -0.02450
C536        C  0.22264946  0.00605010  0.39115938    -0.02460
C537        C  0.24961340  0.49824106  0.40815852     0.07470
C538        C  0.27655315  0.48975778  0.39165276    -0.02650
Br539      Br  0.31377790  0.47608082  0.41195308    -0.01200
Br540      Br  0.31325320  0.47920631  0.33693908    -0.01270
Br541      Br  0.18428933  0.01680037  0.41073298    -0.01230
Br542      Br  0.18672067  0.01718325  0.33571539    -0.01220
C543        C  0.22669083  0.98756398  0.14222241    -0.02340
C544        C  0.25087065  0.50128632  0.15899487     0.07340
C545        C  0.27609728  0.51386479  0.14359329    -0.02450
C546        C  0.27729461  0.51273912  0.11129812    -0.02460
C547        C  0.25242414  0.49991961  0.09403881     0.07470
C548        C  0.22749731  0.98653578  0.10995103    -0.02650
Br549      Br  0.19528278  0.96416877  0.08843409    -0.01200
Br550      Br  0.19178645  0.97102385  0.16369817    -0.01270
Br551      Br  0.31373055  0.52859913  0.09186371    -0.01230
Br552      Br  0.30951439  0.53208702  0.16703868    -0.01220
C553        C  0.01324796  0.77594870  0.35890555    -0.02340
C554        C  0.49953652  0.75145672  0.34248475     0.07340
C555        C  0.48598285  0.72709642  0.35838215    -0.02450
C556        C  0.48552565  0.72742122  0.39069346    -0.02460
C557        C  0.00000192  0.75161527  0.40751805     0.07470
C558        C  0.01410749  0.77581426  0.39124914    -0.02650
Br559      Br  0.03622370  0.80832441  0.41248749    -0.01200
Br560      Br  0.02982668  0.81037854  0.33687855    -0.01270
Br561      Br  0.46330792  0.69514989  0.41109118    -0.01230
Br562      Br  0.46908746  0.69248802  0.33570050    -0.01220
C563        C  0.02240772  0.73354964  0.14091497    -0.02340
C564        C  0.49877900  0.74857250  0.15750038     0.07340
C565        C  0.47512411  0.76380406  0.14106432    -0.02450
C566        C  0.47497210  0.76354959  0.10872866    -0.02460
C567        C  0.49899310  0.74934833  0.09250519     0.07470
C568        C  0.02279168  0.73457070  0.10861796    -0.02650
Br569      Br  0.05675825  0.71680450  0.08634100    -0.01200
Br570      Br  0.05370535  0.70996668  0.16172373    -0.01270
Br571      Br  0.44106809  0.78161749  0.08644481    -0.01230
Br572      Br  0.44348672  0.78673101  0.16214140    -0.01220
C573        C  0.10902559  0.52075347  0.23335274    -0.02340
C574        C  0.09279974  0.99870361  0.25023172     0.07340
C575        C  0.10906900  0.97632956  0.26688122    -0.02450
C576        C  0.14143483  0.97613612  0.26689235    -0.02460
C577        C  0.15782567  0.99825297  0.24993977     0.07470
C578        C  0.14133252  0.52024857  0.23275166    -0.02650
Br579      Br  0.16245955  0.54886039  0.20664506    -0.01200
Br580      Br  0.08707342  0.55287405  0.21220536    -0.01270
Br581      Br  0.16275169  0.94590566  0.29123504    -0.01230
Br582      Br  0.08704064  0.94512282  0.28897347    -0.01220
C583        C  0.39113363  0.98160949  0.22956088    -0.02340
C584        C  0.40801634  0.50180472  0.24887959     0.07340
C585        C  0.39230433  0.52271869  0.26812017    -0.02450
C586        C  0.35996541  0.52276680  0.26881614    -0.02460
C587        C  0.34301360  0.50215826  0.24988398     0.07470
C588        C  0.35880609  0.98201998  0.22979351    -0.02650
Br589      Br  0.33648083  0.95590041  0.20109973    -0.01200
Br590      Br  0.41206278  0.95221714  0.20353762    -0.01270
Br591      Br  0.33936415  0.55056319  0.29676482    -0.01230
Br592      Br  0.41495086  0.55249151  0.29265184    -0.01220
C593        C  0.47469515  0.89180690  0.26261507    -0.02340
C594        C  0.99844090  0.90756223  0.24767863     0.07340
C595        C  0.02155763  0.89090158  0.23242453    -0.02450
C596        C  0.02110416  0.85857260  0.23224672    -0.02460
C597        C  0.99793686  0.84253528  0.24824885     0.07470
C598        C  0.47463508  0.85948894  0.26338593    -0.02650
Br599      Br  0.44314296  0.83918390  0.28673033    -0.01200
Br600      Br  0.44134844  0.91461845  0.28095863    -0.01270
Br601      Br  0.05170906  0.83686262  0.20849501    -0.01230
Br602      Br  0.05470704  0.91242595  0.21268414    -0.01220
C603        C  0.47863637  0.60809102  0.23399616    -0.02340
C604        C  0.50089189  0.59223354  0.25133187     0.07340
C605        C  0.02275844  0.60890169  0.26886945    -0.02450
C606        C  0.02227854  0.64125570  0.26920840    -0.02460
C607        C  0.00052773  0.65723818  0.25112853     0.07470
C608        C  0.47883122  0.64038048  0.23333691    -0.02650
Br609      Br  0.45012265  0.66101456  0.20650259    -0.01200
Br610      Br  0.44666421  0.58564094  0.21226927    -0.01270
Br611      Br  0.05063507  0.66326297  0.29585890    -0.01230
Br612      Br  0.05431094  0.58747372  0.29152637    -0.01220
O613        O  0.45650165  0.50132087  0.72364290    -0.74920
O614        O  0.04436387  0.99895106  0.72439569    -0.74950
O615        O  0.49926054  0.95612684  0.72301603    -0.75000
O616        O  0.00157752  0.54399280  0.72498033    -0.75050
O617        O  0.50084536  0.54363369  0.77615440    -0.74990
O618        O  0.99985945  0.95567582  0.77422583    -0.74960
O619        O  0.04441735  0.49923899  0.77559474    -0.74940
O620        O  0.45647208  0.00002512  0.77477507    -0.75000
Ni621      Ni  0.50044375  0.50009992  0.72218872     1.25410
Ni622      Ni  0.00042228  0.99961819  0.77701962     1.25360
C623        C  0.44199817  0.50101011  0.74908872     0.87260
C624        C  0.05885506  0.99891727  0.75009947     0.87190
C625        C  0.99922694  0.94146178  0.74831425     0.87220
C626        C  0.50124839  0.55828300  0.75084309     0.87390
O627        O  0.47444136  0.70549758  0.75208822    -0.74920
O628        O  0.47302740  0.79326021  0.74803615    -0.74950
O629        O  0.47357113  0.74682120  0.70622374    -0.75000
O630        O  0.47380532  0.75156105  0.79406247    -0.75050
O631        O  0.02505852  0.75027276  0.79435414    -0.74990
O632        O  0.02448794  0.75079335  0.70641545    -0.74960
O633        O  0.02401588  0.79426516  0.75123850    -0.74940
O634        O  0.02548863  0.70632300  0.74958806    -0.75000
Ni635      Ni  0.47187875  0.74928160  0.75011859     1.25410
Ni636      Ni  0.02660453  0.75040450  0.75040818     1.25360
C637        C  0.00017831  0.69134875  0.75096882     0.87260
C638        C  0.99830061  0.80836466  0.74924495     0.87190
C639        C  0.49894680  0.74865445  0.69170328     0.87220
C640        C  0.49947898  0.75117293  0.80863222     0.87390
O641        O  0.29391601  0.52679430  0.75121166    -0.74920
O642        O  0.20602076  0.52463934  0.75210384    -0.74950
O643        O  0.25046537  0.52511364  0.79564695    -0.75000
O644        O  0.24940867  0.52644578  0.70777577    -0.75050
O645        O  0.25141708  0.97524880  0.70649366    -0.74990
O646        O  0.25059355  0.97386479  0.79422402    -0.74960
O647        O  0.20702495  0.97361217  0.74927543    -0.74940
O648        O  0.29494912  0.97568462  0.75117861    -0.75000
Ni649      Ni  0.24991156  0.52758436  0.75176408     1.25410
Ni650      Ni  0.25103910  0.97277824  0.75027977     1.25360
C651        C  0.30896365  0.00155520  0.75091597     0.87260
C652        C  0.19195559  0.99881719  0.75047523     0.87190
C653        C  0.25044247  0.49926114  0.80929832     0.87220
C654        C  0.25048834  0.50103130  0.69275817     0.87390
O655        O  0.22505965  0.54413378  0.99951352    -0.74920
O656        O  0.22546883  0.95653630  0.50346148    -0.74950
O657        O  0.22635811  0.50278893  0.54537918    -0.75000
O658        O  0.22479574  0.99754085  0.95755615    -0.75050
O659        O  0.27544730  0.50186505  0.95717167    -0.74990
O660        O  0.27720047  0.99900053  0.54488691    -0.74960
O661        O  0.27642371  0.95659191  0.99919416    -0.74940
O662        O  0.27623268  0.54451059  0.50261744    -0.75000
Ni663      Ni  0.22355705  0.50028758  0.50150154     1.25410
Ni664      Ni  0.27820371  0.00054276  0.00097561     1.25360
C665        C  0.25057216  0.55871418  0.00085320     0.87260
C666        C  0.25091212  0.94204070  0.50127934     0.87190
C667        C  0.25204016  0.00062713  0.55978936     0.87220
C668        C  0.24993635  0.49921475  0.94260310     0.87390
O669        O  0.45555907  0.77565902  0.50153820    -0.74920
O670        O  0.04357414  0.77688680  0.00041495    -0.74950
O671        O  0.49844711  0.77676096  0.95694579    -0.75000
O672        O  0.00019816  0.77571650  0.54494258    -0.75050
O673        O  0.49836124  0.72453456  0.54351294    -0.74990
O674        O  0.00243919  0.72593539  0.95583141    -0.74960
O675        O  0.04402943  0.72583548  0.50212838    -0.74940
O676        O  0.45636406  0.72480293  0.99701883    -0.75000
Ni677      Ni  0.49950547  0.77811868  0.00101454     1.25410
Ni678      Ni  0.00025541  0.72344911  0.49959752     1.25360
C679        C  0.44132239  0.75003392  0.49882753     0.87260
C680        C  0.05838177  0.75151556  0.00143184     0.87190
C681        C  0.00040094  0.75147826  0.94175462     0.87220
C682        C  0.49915231  0.74989828  0.55865349     0.87390
O683        O  0.24951470  0.70725807  0.52476278    -0.74920
O684        O  0.25110806  0.79488176  0.52571156    -0.74950
O685        O  0.20653288  0.75165673  0.52625860    -0.75000
O686        O  0.29452527  0.75031256  0.52420363    -0.75050
O687        O  0.29315112  0.75088402  0.97302307    -0.74990
O688        O  0.20528463  0.75077655  0.97510638    -0.74960
O689        O  0.24930820  0.79473358  0.97454858    -0.74940
O690        O  0.24961582  0.70677845  0.97404747    -0.75000
Ni691      Ni  0.25051847  0.75104612  0.52704688     1.25410
Ni692      Ni  0.24922674  0.75078092  0.97234892     1.25360
C693        C  0.24967072  0.69222336  0.99941915     0.87260
C694        C  0.25033485  0.80926799  0.00028597     0.87190
C695        C  0.19138207  0.75130780  0.50094694     0.87220
C696        C  0.30824158  0.75045498  0.49828520     0.87390
C697        C  0.39056789  0.72571913  0.51196283    -0.02340
C698        C  0.40714907  0.74965926  0.49783837     0.07340
C699        C  0.39079973  0.77330526  0.98277052    -0.02450
C700        C  0.35844862  0.77368729  0.98316222    -0.02460
C701        C  0.34212050  0.74995046  0.49751120     0.07470
C702        C  0.35825743  0.72554913  0.51098925    -0.02650
Br703      Br  0.33602434  0.69070395  0.52635187    -0.01200
Br704      Br  0.41131766  0.69358940  0.53426970    -0.01270
Br705      Br  0.33635973  0.80724652  0.96457864    -0.01230
Br706      Br  0.41194872  0.80457436  0.95989578    -0.01220
C707        C  0.10903566  0.77290702  0.51994275    -0.02340
C708        C  0.09245052  0.75165327  0.00147545     0.07340
C709        C  0.10857228  0.73015911  0.98314967    -0.02450
C710        C  0.14086089  0.72949353  0.98385594    -0.02460
C711        C  0.15739756  0.75132502  0.50148039     0.07470
C712        C  0.14140320  0.77315414  0.51941670    -0.02650
Br713      Br  0.16366057  0.80436868  0.54238536    -0.01200
Br714      Br  0.08792172  0.80081895  0.54735676    -0.01270
Br715      Br  0.16214703  0.69723373  0.96199883    -0.01230
Br716      Br  0.08688862  0.70241162  0.95550665    -0.01220
C717        C  0.22825950  0.85939684  0.98359500    -0.02340
C718        C  0.25039536  0.84316743  0.50067751     0.07340
C719        C  0.27253275  0.85944357  0.51829750    -0.02450
C720        C  0.27238889  0.89174547  0.51893515    -0.02460
C721        C  0.25075990  0.90804733  0.50109466     0.07470
C722        C  0.22879834  0.89167588  0.98327601    -0.02650
Br723      Br  0.20005600  0.91303543  0.95705366    -0.01200
Br724      Br  0.19582862  0.83756368  0.96193077    -0.01270
Br725      Br  0.30092668  0.91332155  0.54577781    -0.01230
Br726      Br  0.30397025  0.83768086  0.54083034    -0.01220
C727        C  0.25702467  0.64153944  0.52713867    -0.02340
C728        C  0.24994339  0.65770118  0.99960884     0.07340
C729        C  0.24298474  0.64019236  0.97249413    -0.02450
C730        C  0.24333512  0.60785299  0.97310756    -0.02460
C731        C  0.25031603  0.59249030  0.00038611     0.07470
C732        C  0.25678140  0.60924130  0.52730011    -0.02650
Br733      Br  0.26407893  0.58748438  0.56499811    -0.01200
Br734      Br  0.26816115  0.66195693  0.56546072    -0.01270
Br735      Br  0.23461611  0.58408561  0.93628122    -0.01230
Br736      Br  0.23218446  0.65889426  0.93377845    -0.01220
C737        C  0.27659254  0.49008871  0.85933109    -0.02340
C738        C  0.25011946  0.49870909  0.84304324     0.07340
C739        C  0.22321308  0.00647478  0.85884253    -0.02450
C740        C  0.22267056  0.00605949  0.89116356    -0.02460
C741        C  0.24963627  0.49824828  0.90815934     0.07470
C742        C  0.27657263  0.48976192  0.89165037    -0.02650
Br743      Br  0.31379866  0.47608347  0.91194711    -0.01200
Br744      Br  0.31326379  0.47920330  0.83693207    -0.01270
Br745      Br  0.18431498  0.01681748  0.91074197    -0.01230
Br746      Br  0.18673390  0.01718971  0.83572396    -0.01220
C747        C  0.22667260  0.98756439  0.64222609    -0.02340
C748        C  0.25085567  0.50128563  0.65899489     0.07340
C749        C  0.27608027  0.51386302  0.64358946    -0.02450
C750        C  0.27727291  0.51273669  0.61129416    -0.02460
C751        C  0.25239919  0.49991820  0.59403840     0.07470
C752        C  0.22747381  0.98653647  0.60995441    -0.02650
Br753      Br  0.19525423  0.96417251  0.58844213    -0.01200
Br754      Br  0.19177160  0.97102468  0.66370742    -0.01270
Br755      Br  0.31370761  0.52859406  0.59185511    -0.01230
Br756      Br  0.30950148  0.53208425  0.66702989    -0.01220
C757        C  0.01329143  0.77594990  0.85890103    -0.02340
C758        C  0.49957217  0.75145902  0.84248509     0.07340
C759        C  0.48602336  0.72709933  0.85838746    -0.02450
C760        C  0.48557778  0.72742419  0.89069899    -0.02460
C761        C  0.00006072  0.75161780  0.90751845     0.07470
C762        C  0.01416234  0.77581554  0.89124448    -0.02650
Br763      Br  0.03628764  0.80832416  0.91247549    -0.01200
Br764      Br  0.02986455  0.81037851  0.83686807    -0.01270
Br765      Br  0.46336580  0.69515385  0.91110444    -0.01230
Br766      Br  0.46911786  0.69249184  0.83571195    -0.01220
C767        C  0.02236154  0.73353897  0.64090810    -0.02340
C768        C  0.49874001  0.74856547  0.65750034     0.07340
C769        C  0.47507998  0.76379639  0.64107103    -0.02450
C770        C  0.47491723  0.76353964  0.60873522    -0.02460
C771        C  0.49893223  0.74933613  0.59250477     0.07470
C772        C  0.02273487  0.73455761  0.60861085    -0.02650
Br773      Br  0.05669338  0.71678772  0.58632442    -0.01200
Br774      Br  0.05366367  0.70995441  0.66170837    -0.01270
Br775      Br  0.44100734  0.78160823  0.58646097    -0.01230
Br776      Br  0.44345029  0.78672548  0.66215732    -0.01220
C777        C  0.10902546  0.52075448  0.73335685    -0.02340
C778        C  0.09279909  0.99870525  0.75023615     0.07340
C779        C  0.10906796  0.97633225  0.76688753    -0.02450
C780        C  0.14143384  0.97613926  0.76690015    -0.02460
C781        C  0.15782509  0.99825512  0.74994684     0.07470
C782        C  0.14133239  0.52024974  0.73275699    -0.02650
Br783      Br  0.16246006  0.54886031  0.70664946    -0.01200
Br784      Br  0.08707401  0.55287395  0.71220696    -0.01270
Br785      Br  0.16275040  0.94591095  0.79124566    -0.01230
Br786      Br  0.08703915  0.94512596  0.78897993    -0.01220
C787        C  0.39113336  0.98161184  0.72955559    -0.02340
C788        C  0.40801560  0.50180648  0.74887542     0.07340
C789        C  0.39230308  0.52272004  0.76811601    -0.02450
C790        C  0.35996417  0.52276831  0.76881091    -0.02460
C791        C  0.34301284  0.50216017  0.74987786     0.07470
C792        C  0.35880578  0.98202228  0.72978745    -0.02650
Br793      Br  0.33648091  0.95590297  0.70109320    -0.01200
Br794      Br  0.41206313  0.95222028  0.70353200    -0.01270
Br795      Br  0.33936227  0.55056420  0.79675968    -0.01230
Br796      Br  0.41494891  0.55249195  0.79264952    -0.01220
C797        C  0.47469294  0.89180855  0.76261226    -0.02340
C798        C  0.99843979  0.90756375  0.74767760     0.07340
C799        C  0.02155717  0.89090313  0.73242471    -0.02450
C800        C  0.02110315  0.85857412  0.73224590    -0.02460
C801        C  0.99793500  0.84253646  0.74824701     0.07470
C802        C  0.47463259  0.85949056  0.76338318    -0.02650
Br803      Br  0.44313858  0.83918711  0.78672660    -0.01200
Br804      Br  0.44134511  0.91462061  0.78095332    -0.01270
Br805      Br  0.05170882  0.83686558  0.70849375    -0.01230
Br806      Br  0.05470842  0.91242784  0.71268752    -0.01220
C807        C  0.47863352  0.60809225  0.73399936    -0.02340
C808        C  0.50089080  0.59223483  0.75133290     0.07340
C809        C  0.02275887  0.60890295  0.76886857    -0.02450
C810        C  0.02227923  0.64125694  0.76920718    -0.02460
C811        C  0.00052601  0.65723920  0.75113020     0.07470
C812        C  0.47882752  0.64038173  0.73334109    -0.02650
Br813      Br  0.45011504  0.66101673  0.70651172    -0.01200
Br814      Br  0.44666068  0.58564200  0.71227379    -0.01270
Br815      Br  0.05063979  0.66326497  0.79585263    -0.01230
Br816      Br  0.05431277  0.58747491  0.79152339    -0.01220
O817        O  0.95650122  0.00131924  0.22364495    -0.74920
O818        O  0.54436342  0.49894941  0.22439348    -0.74950
O819        O  0.99926009  0.45612511  0.22301647    -0.75000
O820        O  0.50157727  0.04399110  0.22497979    -0.75050
O821        O  0.00084713  0.04363252  0.27615388    -0.74990
O822        O  0.49986141  0.45567462  0.27422627    -0.74960
O823        O  0.54441925  0.99923790  0.27559255    -0.74940
O824        O  0.95647395  0.50002391  0.27477717    -0.75000
Ni825      Ni  0.00044324  0.00009822  0.22218865     1.25410
Ni826      Ni  0.50042425  0.49961704  0.27701959     1.25360
C827        C  0.94199890  0.00100866  0.24909145     0.87260
C828        C  0.55885576  0.49891591  0.25009661     0.87190
C829        C  0.49922776  0.44146030  0.24831486     0.87220
C830        C  0.00124921  0.05828161  0.25084241     0.87390
O831        O  0.97444262  0.20549672  0.25207682    -0.74920
O832        O  0.97302951  0.29325946  0.24802774    -0.74950
O833        O  0.97359101  0.24682240  0.20621355    -0.75000
O834        O  0.97378901  0.25155841  0.29405213    -0.75050
O835        O  0.52504229  0.25027095  0.29436424    -0.74990
O836        O  0.52450787  0.25079499  0.20642569    -0.74960
O837        O  0.52401725  0.29426490  0.25124951    -0.74940
O838        O  0.52549087  0.20632267  0.24959673    -0.75000
Ni839      Ni  0.97188048  0.24928074  0.25010767     1.25410
Ni840      Ni  0.52660637  0.25040425  0.25041901     1.25360
C841        C  0.50018005  0.19134801  0.25096724     0.87260
C842        C  0.49830240  0.30836392  0.24924654     0.87190
C843        C  0.99897252  0.24865729  0.19170330     0.87220
C844        C  0.99945689  0.25117041  0.30863203     0.87390
O845        O  0.79391684  0.02679309  0.25121721    -0.74920
O846        O  0.70602109  0.02463798  0.25209851    -0.74950
O847        O  0.75045986  0.02511169  0.29564712    -0.75000
O848        O  0.74941535  0.02644563  0.20777591    -0.75050
O849        O  0.75142408  0.47524868  0.20649309    -0.74990
O850        O  0.75058790  0.47386284  0.29422304    -0.74960
O851        O  0.70702586  0.47361090  0.24926893    -0.74940
O852        O  0.79494960  0.47568338  0.25118354    -0.75000
Ni853      Ni  0.74991212  0.02758324  0.25176425     1.25410
Ni854      Ni  0.75103978  0.47277713  0.25027896     1.25360
C855        C  0.80896435  0.50155384  0.25092192     0.87260
C856        C  0.69195620  0.49881570  0.25046851     0.87190
C857        C  0.75043435  0.99925891  0.30929788     0.87220
C858        C  0.75049778  0.00103148  0.19275802     0.87390
O859        O  0.72503200  0.04412829  0.49951226    -0.74920
O860        O  0.72549995  0.45654023  0.00346265    -0.74950
O861        O  0.72638633  0.00279339  0.04537945    -0.75000
O862        O  0.72476840  0.49753609  0.45755439    -0.75050
O863        O  0.77542009  0.00185812  0.45717204    -0.74990
O864        O  0.77722888  0.49900659  0.04488799    -0.74960
O865        O  0.77639266  0.45658452  0.49919385    -0.74940
O866        O  0.77626039  0.04451632  0.00261844    -0.75000
Ni867      Ni  0.72358560  0.00029219  0.00150261     1.25410
Ni868      Ni  0.77817515  0.50053612  0.50097521     1.25360
C869        C  0.75054435  0.05870859  0.50085163     0.87260
C870        C  0.75094452  0.44204637  0.00128120     0.87190
C871        C  0.75206780  0.50063135  0.05978995     0.87220
C872        C  0.74991044  0.99920836  0.44260237     0.87390
O873        O  0.95562946  0.27566752  0.00153801    -0.74920
O874        O  0.54350380  0.27687942  0.50041605    -0.74950
O875        O  0.99837773  0.27675514  0.45694662    -0.75000
O876        O  0.50026836  0.27572644  0.04494197    -0.75050
O877        O  0.99843173  0.22454443  0.04351476    -0.74990
O878        O  0.50237108  0.22592973  0.45582974    -0.74960
O879        O  0.54409933  0.22584287  0.00212893    -0.74940
O880        O  0.95629436  0.22479481  0.49701559    -0.75000
Ni881      Ni  0.99943510  0.27811076  0.50101535     1.25410
Ni882      Ni  0.50032521  0.22345689  0.99959942     1.25360
C883        C  0.94139250  0.25004236  0.99882973     0.87260
C884        C  0.55831171  0.25150830  0.50143227     0.87190
C885        C  0.50033436  0.25147343  0.44175422     0.87220
C886        C  0.99922099  0.24990890  0.05865406     0.87390
O887        O  0.74958390  0.20726365  0.02476445    -0.74920
O888        O  0.75117515  0.29488759  0.02571380    -0.74950
O889        O  0.70660191  0.25166141  0.02625950    -0.75000
O890        O  0.79459418  0.25031951  0.02420734    -0.75050
O891        O  0.79308063  0.25087759  0.47301934    -0.74990
O892        O  0.70521436  0.25077080  0.47510552    -0.74960
O893        O  0.74923927  0.29472769  0.47454644    -0.74940
O894        O  0.74954613  0.20677227  0.47404576    -0.75000
Ni895      Ni  0.75058729  0.25105183  0.02704903     1.25410
Ni896      Ni  0.74915645  0.25077488  0.47234679     1.25360
C897        C  0.74960354  0.19221752  0.49941769     0.87260
C898        C  0.75026951  0.30926217  0.50028374     0.87190
C899        C  0.69145176  0.25131307  0.00094749     0.87220
C900        C  0.80831140  0.25046201  0.99828943     0.87390
C901        C  0.89063876  0.22573109  0.01197286    -0.02340
C902        C  0.90721925  0.24966795  0.99784240     0.07340
C903        C  0.89073004  0.27329938  0.48277018    -0.02450
C904        C  0.85837892  0.27368145  0.48316100    -0.02460
C905        C  0.84219058  0.24995849  0.99751662     0.07470
C906        C  0.85832823  0.22556053  0.01100019    -0.02650
Br907      Br  0.83609627  0.19071910  0.02637277    -0.01200
Br908      Br  0.91139017  0.19360735  0.03428687    -0.01270
Br909      Br  0.83629030  0.30724273  0.46458073    -0.01230
Br910      Br  0.91187940  0.30457255  0.45990125    -0.01220
C911        C  0.60910575  0.27291259  0.01994362    -0.02340
C912        C  0.59238057  0.25164630  0.50147601     0.07340
C913        C  0.60850263  0.23015122  0.48315152    -0.02450
C914        C  0.64079127  0.22948615  0.48385775    -0.02460
C915        C  0.65746735  0.25133089  0.00148032     0.07470
C916        C  0.64147325  0.27315911  0.01941801    -0.02650
Br917      Br  0.66373086  0.30437149  0.04238955    -0.01200
Br918      Br  0.58799191  0.30082329  0.04735890    -0.01270
Br919      Br  0.66207777  0.19722513  0.46200288    -0.01230
Br920      Br  0.58681950  0.20240171  0.45551002    -0.01220
C921        C  0.72820912  0.35939682  0.48359034    -0.02340
C922        C  0.75045192  0.34317314  0.00067989     0.07340
C923        C  0.77258520  0.35945477  0.01829960    -0.02450
C924        C  0.77243150  0.39175651  0.01893902    -0.02460
C925        C  0.75079721  0.40805302  0.00109965     0.07470
C926        C  0.72875777  0.39167564  0.48326980    -0.02650
Br927      Br  0.70002421  0.41304224  0.45704362    -0.01200
Br928      Br  0.69577252  0.33757230  0.46192598    -0.01270
Br929      Br  0.80096329  0.41333931  0.04578282    -0.01230
Br930      Br  0.80403090  0.33769981  0.04082863    -0.01220
C931        C  0.75707384  0.14154306  0.02714043    -0.02340
C932        C  0.74988506  0.15769548  0.49960807     0.07340
C933        C  0.74293008  0.14018472  0.47249382    -0.02450
C934        C  0.74329449  0.10784553  0.47310615    -0.02460
C935        C  0.75028579  0.09248471  0.50038331     0.07470
C936        C  0.75681514  0.10924509  0.02730322    -0.02650
Br937      Br  0.76409691  0.08748633  0.06500312    -0.01200
Br938      Br  0.76822167  0.16195709  0.06546096    -0.01270
Br939      Br  0.73457994  0.08407600  0.43628012    -0.01230
Br940      Br  0.73211274  0.15888377  0.43378140    -0.01220
C941        C  0.77657763  0.99008675  0.35933366    -0.02340
C942        C  0.75010629  0.99870583  0.34304263     0.07340
C943        C  0.72319680  0.50646819  0.35883845    -0.02450
C944        C  0.72264947  0.50605013  0.39115937    -0.02460
C945        C  0.74961341  0.99824108  0.40815854     0.07470
C946        C  0.77655318  0.98975787  0.39165277    -0.02650
Br947      Br  0.81377799  0.97608104  0.41195308    -0.01200
Br948      Br  0.81325324  0.97920646  0.33693909    -0.01270
Br949      Br  0.68428936  0.51680048  0.41073297    -0.01230
Br950      Br  0.68672069  0.51718333  0.33571538    -0.01220
C951        C  0.72669082  0.48756398  0.14222239    -0.02340
C952        C  0.75087065  0.00128632  0.15899488     0.07340
C953        C  0.77609729  0.01386479  0.14359330    -0.02450
C954        C  0.77729463  0.01273911  0.11129813    -0.02460
C955        C  0.75242415  0.99991961  0.09403883     0.07470
C956        C  0.72749730  0.48653578  0.10995101    -0.02650
Br957      Br  0.69528277  0.46416878  0.08843408    -0.01200
Br958      Br  0.69178644  0.47102386  0.16369816    -0.01270
Br959      Br  0.81373057  0.02859911  0.09186373    -0.01230
Br960      Br  0.80951439  0.03208702  0.16703870    -0.01220
C961        C  0.51324795  0.27594870  0.35890557    -0.02340
C962        C  0.99953654  0.25145672  0.34248477     0.07340
C963        C  0.98598286  0.22709642  0.35838216    -0.02450
C964        C  0.98552566  0.22742122  0.39069348    -0.02460
C965        C  0.50000191  0.25161527  0.40751806     0.07470
C966        C  0.51410748  0.27581427  0.39124916    -0.02650
Br967      Br  0.53622370  0.30832441  0.41248750    -0.01200
Br968      Br  0.52982668  0.31037853  0.33687856    -0.01270
Br969      Br  0.96330793  0.19514989  0.41109120    -0.01230
Br970      Br  0.96908747  0.19248802  0.33570051    -0.01220
C971        C  0.52240770  0.23354963  0.14091499    -0.02340
C972        C  0.99877900  0.24857250  0.15750040     0.07340
C973        C  0.97512412  0.26380407  0.14106434    -0.02450
C974        C  0.97497211  0.26354960  0.10872868    -0.02460
C975        C  0.99899311  0.24934832  0.09250520     0.07470
C976        C  0.52279166  0.23457068  0.10861797    -0.02650
Br977      Br  0.55675822  0.21680446  0.08634102    -0.01200
Br978      Br  0.55370531  0.20996665  0.16172375    -0.01270
Br979      Br  0.94106811  0.28161751  0.08644483    -0.01230
Br980      Br  0.94348674  0.28673103  0.16214141    -0.01220
C981        C  0.60902559  0.02075347  0.23335276    -0.02340
C982        C  0.59279973  0.49870361  0.25023171     0.07340
C983        C  0.60906900  0.47632957  0.26688121    -0.02450
C984        C  0.64143483  0.47613612  0.26689235    -0.02460
C985        C  0.65782567  0.49825297  0.24993977     0.07470
C986        C  0.64133252  0.02024857  0.23275168    -0.02650
Br987      Br  0.66245955  0.04886041  0.20664508    -0.01200
Br988      Br  0.58707342  0.05287406  0.21220539    -0.01270
Br989      Br  0.66275169  0.44590569  0.29123505    -0.01230
Br990      Br  0.58704064  0.44512283  0.28897347    -0.01220
C991        C  0.89113363  0.48160948  0.22956087    -0.02340
C992        C  0.90801635  0.00180474  0.24887959     0.07340
C993        C  0.89230433  0.02271872  0.26812015    -0.02450
C994        C  0.85996541  0.02276684  0.26881612    -0.02460
C995        C  0.84301360  0.00215829  0.24988398     0.07470
C996        C  0.85880610  0.48201997  0.22979350    -0.02650
Br997      Br  0.83648083  0.45590040  0.20109971    -0.01200
Br998      Br  0.91206279  0.45221714  0.20353761    -0.01270
Br999      Br  0.83936417  0.05056326  0.29676477    -0.01230
Br1000     Br  0.91495087  0.05249155  0.29265181    -0.01220
C1001       C  0.97469515  0.39180690  0.26261508    -0.02340
C1002       C  0.49844090  0.40756223  0.24767863     0.07340
C1003       C  0.52155761  0.39090158  0.23242453    -0.02450
C1004       C  0.52110415  0.35857259  0.23224672    -0.02460
C1005       C  0.49793685  0.34253528  0.24824885     0.07470
C1006       C  0.97463509  0.35948894  0.26338594    -0.02650
Br1007     Br  0.94314297  0.33918390  0.28673034    -0.01200
Br1008     Br  0.94134844  0.41461845  0.28095863    -0.01270
Br1009     Br  0.55170903  0.33686261  0.20849500    -0.01230
Br1010     Br  0.55470702  0.41242594  0.21268413    -0.01220
C1011       C  0.97863638  0.10809102  0.23399616    -0.02340
C1012       C  0.00089190  0.09223354  0.25133188     0.07340
C1013       C  0.52275842  0.10890169  0.26886946    -0.02450
C1014       C  0.52227852  0.14125571  0.26920842    -0.02460
C1015       C  0.50052771  0.15723818  0.25112854     0.07470
C1016       C  0.97883124  0.14038048  0.23333691    -0.02650
Br1017     Br  0.95012267  0.16101457  0.20650259    -0.01200
Br1018     Br  0.94666422  0.08564095  0.21226926    -0.01270
Br1019     Br  0.55063503  0.16326297  0.29585894    -0.01230
Br1020     Br  0.55431092  0.08747373  0.29152639    -0.01220
O1021       O  0.95650165  0.00132088  0.72364290    -0.74920
O1022       O  0.54436387  0.49895106  0.72439572    -0.74950
O1023       O  0.99926054  0.45612684  0.72301604    -0.75000
O1024       O  0.50157753  0.04399280  0.72498032    -0.75050
O1025       O  0.00084538  0.04363368  0.77615440    -0.74990
O1026       O  0.49985944  0.45567582  0.77422584    -0.74960
O1027       O  0.54441736  0.99923898  0.77559472    -0.74940
O1028       O  0.95647207  0.50002512  0.77477507    -0.75000
Ni1029     Ni  0.00044375  0.00009992  0.72218871     1.25410
Ni1030     Ni  0.50042227  0.49961819  0.77701964     1.25360
C1031       C  0.94199817  0.00101011  0.74908872     0.87260
C1032       C  0.55885506  0.49891728  0.75009950     0.87190
C1033       C  0.49922694  0.44146179  0.74831426     0.87220
C1034       C  0.00124839  0.05828299  0.75084309     0.87390
O1035       O  0.97444136  0.20549758  0.75208823    -0.74920
O1036       O  0.97302739  0.29326021  0.74803616    -0.74950
O1037       O  0.97357113  0.24682120  0.70622376    -0.75000
O1038       O  0.97380532  0.25156105  0.79406249    -0.75050
O1039       O  0.52505854  0.25027275  0.79435416    -0.74990
O1040       O  0.52448797  0.25079335  0.70641546    -0.74960
O1041       O  0.52401591  0.29426516  0.75123853    -0.74940
O1042       O  0.52548865  0.20632300  0.74958806    -0.75000
Ni1043     Ni  0.97187874  0.24928160  0.75011860     1.25410
Ni1044     Ni  0.52660455  0.25040450  0.75040820     1.25360
C1045       C  0.50017833  0.19134875  0.75096883     0.87260
C1046       C  0.49830064  0.30836466  0.74924497     0.87190
C1047       C  0.99894679  0.24865445  0.69170330     0.87220
C1048       C  0.99947897  0.25117293  0.80863223     0.87390
O1049       O  0.79391601  0.02679430  0.75121167    -0.74920
O1050       O  0.70602076  0.02463932  0.75210385    -0.74950
O1051       O  0.75046538  0.02511363  0.79564696    -0.75000
O1052       O  0.74940867  0.02644577  0.70777578    -0.75050
O1053       O  0.75141707  0.47524881  0.70649364    -0.74990
O1054       O  0.75059354  0.47386479  0.79422400    -0.74960
O1055       O  0.70702494  0.47361218  0.74927542    -0.74940
O1056       O  0.79494911  0.47568461  0.75117859    -0.75000
Ni1057     Ni  0.74991156  0.02758436  0.75176409     1.25410
Ni1058     Ni  0.75103909  0.47277824  0.75027975     1.25360
C1059       C  0.80896364  0.50155519  0.75091595     0.87260
C1060       C  0.69195559  0.49881720  0.75047523     0.87190
C1061       C  0.75044248  0.99926114  0.80929834     0.87220
C1062       C  0.75048834  0.00103128  0.69275818     0.87390
O1063       O  0.72505967  0.04413378  0.99951354    -0.74920
O1064       O  0.72546884  0.45653630  0.50346146    -0.74950
O1065       O  0.72635811  0.00278893  0.54537920    -0.75000
O1066       O  0.72479572  0.49754084  0.95755613    -0.75050
O1067       O  0.77544732  0.00186505  0.95717169    -0.74990
O1068       O  0.77720048  0.49900054  0.54488689    -0.74960
O1069       O  0.77642369  0.45659191  0.99919414    -0.74940
O1070       O  0.77623268  0.04451059  0.50261746    -0.75000
Ni1071     Ni  0.72355705  0.00028758  0.50150156     1.25410
Ni1072     Ni  0.77820370  0.50054276  0.00097559     1.25360
C1073       C  0.75057218  0.05871418  0.00085322     0.87260
C1074       C  0.75091212  0.44204070  0.50127933     0.87190
C1075       C  0.75204016  0.50062713  0.55978934     0.87220
C1076       C  0.74993638  0.99921475  0.94260312     0.87390
O1077       O  0.95555908  0.27565902  0.50153821    -0.74920
O1078       O  0.54357415  0.27688679  0.00041496    -0.74950
O1079       O  0.99844712  0.27676095  0.95694581    -0.75000
O1080       O  0.50019816  0.27571649  0.54494259    -0.75050
O1081       O  0.99836124  0.22453456  0.54351295    -0.74990
O1082       O  0.50243920  0.22593537  0.95583143    -0.74960
O1083       O  0.54402943  0.22583549  0.50212838    -0.74940
O1084       O  0.95636407  0.22480293  0.99701885    -0.75000
Ni1085     Ni  0.99950548  0.27811868  0.00101455     1.25410
Ni1086     Ni  0.50025541  0.22344911  0.49959753     1.25360
C1087       C  0.94132240  0.25003392  0.49882754     0.87260
C1088       C  0.55838177  0.25151555  0.00143187     0.87190
C1089       C  0.50040096  0.25147824  0.94175464     0.87220
C1090       C  0.99915231  0.24989828  0.55865351     0.87390
O1091       O  0.74951470  0.20725807  0.52476278    -0.74920
O1092       O  0.75110807  0.29488176  0.52571156    -0.74950
O1093       O  0.70653289  0.25165673  0.52625859    -0.75000
O1094       O  0.79452527  0.25031256  0.52420363    -0.75050
O1095       O  0.79315112  0.25088402  0.97302307    -0.74990
O1096       O  0.70528464  0.25077654  0.97510639    -0.74960
O1097       O  0.74930820  0.29473357  0.97454858    -0.74940
O1098       O  0.74961583  0.20677844  0.97404747    -0.75000
Ni1099     Ni  0.75051847  0.25104612  0.52704688     1.25410
Ni1100     Ni  0.74922674  0.25078091  0.97234892     1.25360
C1101       C  0.74967073  0.19222335  0.99941916     0.87260
C1102       C  0.75033486  0.30926798  0.00028597     0.87190
C1103       C  0.69138207  0.25130781  0.50094693     0.87220
C1104       C  0.80824158  0.25045498  0.49828520     0.87390
C1105       C  0.89056789  0.22571912  0.51196283    -0.02340
C1106       C  0.90714907  0.24965925  0.49783838     0.07340
C1107       C  0.89079974  0.27330525  0.98277053    -0.02450
C1108       C  0.85844863  0.27368729  0.98316223    -0.02460
C1109       C  0.84212050  0.24995045  0.49751120     0.07470
C1110       C  0.85825743  0.22554913  0.51098925    -0.02650
Br1111     Br  0.83602434  0.19070394  0.52635186    -0.01200
Br1112     Br  0.91131766  0.19358939  0.53426970    -0.01270
Br1113     Br  0.83635974  0.30724652  0.96457864    -0.01230
Br1114     Br  0.91194873  0.30457436  0.95989579    -0.01220
C1115       C  0.60903567  0.27290703  0.51994275    -0.02340
C1116       C  0.59245053  0.25165325  0.00147547     0.07340
C1117       C  0.60857229  0.23015909  0.98314970    -0.02450
C1118       C  0.64086089  0.22949351  0.98385597    -0.02460
C1119       C  0.65739756  0.25132503  0.50148039     0.07470
C1120       C  0.64140320  0.27315415  0.51941670    -0.02650
Br1121     Br  0.66366058  0.30436868  0.54238537    -0.01200
Br1122     Br  0.58792173  0.30081896  0.54735676    -0.01270
Br1123     Br  0.66214704  0.19723371  0.96199887    -0.01230
Br1124     Br  0.58688862  0.20241159  0.95550669    -0.01220
C1125       C  0.72825950  0.35939683  0.98359499    -0.02340
C1126       C  0.75039536  0.34316743  0.50067750     0.07340
C1127       C  0.77253276  0.35944357  0.51829748    -0.02450
C1128       C  0.77238890  0.39174547  0.51893514    -0.02460
C1129       C  0.75075991  0.40804733  0.50109464     0.07470
C1130       C  0.72879834  0.39167587  0.98327600    -0.02650
Br1131     Br  0.70005599  0.41303541  0.95705365    -0.01200
Br1132     Br  0.69582862  0.33756367  0.96193076    -0.01270
Br1133     Br  0.80092669  0.41332155  0.54577779    -0.01230
Br1134     Br  0.80397026  0.33768087  0.54083033    -0.01220
C1135       C  0.75702468  0.14153945  0.52713868    -0.02340
C1136       C  0.74994340  0.15770118  0.99960885     0.07340
C1137       C  0.74298475  0.14019235  0.97249414    -0.02450
C1138       C  0.74333513  0.10785298  0.97310758    -0.02460
C1139       C  0.75031605  0.09249029  0.00038613     0.07470
C1140       C  0.75678142  0.10924131  0.52730012    -0.02650
Br1141     Br  0.76407896  0.08748439  0.56499813    -0.01200
Br1142     Br  0.76816116  0.16195694  0.56546073    -0.01270
Br1143     Br  0.73461610  0.08408560  0.93628125    -0.01230
Br1144     Br  0.73218446  0.15889425  0.93377847    -0.01220
C1145       C  0.77659257  0.99008877  0.85933110    -0.02340
C1146       C  0.75011947  0.99870909  0.84304325     0.07340
C1147       C  0.72321308  0.50647484  0.85884251    -0.02450
C1148       C  0.72267055  0.50605954  0.89116355    -0.02460
C1149       C  0.74963630  0.99824829  0.90815936     0.07470
C1150       C  0.77657267  0.98976199  0.89165038    -0.02650
Br1151     Br  0.81379875  0.97608364  0.91194711    -0.01200
Br1152     Br  0.81326384  0.97920341  0.83693208    -0.01270
Br1153     Br  0.68431501  0.51681763  0.91074195    -0.01230
Br1154     Br  0.68673393  0.51718986  0.83572394    -0.01220
C1155       C  0.72667260  0.48756438  0.64222607    -0.02340
C1156       C  0.75085567  0.00128562  0.65899491     0.07340
C1157       C  0.77608028  0.01386300  0.64358947    -0.02450
C1158       C  0.77727291  0.01273668  0.61129418    -0.02460
C1159       C  0.75239918  0.99991820  0.59403842     0.07470
C1160       C  0.72747382  0.48653646  0.60995439    -0.02650
Br1161     Br  0.69525426  0.46417248  0.58844210    -0.01200
Br1162     Br  0.69177161  0.47102466  0.66370739    -0.01270
Br1163     Br  0.81370761  0.02859404  0.59185512    -0.01230
Br1164     Br  0.80950150  0.03208421  0.66702991    -0.01220
C1165       C  0.51329147  0.27594988  0.85890105    -0.02340
C1166       C  0.99957216  0.25145901  0.84248510     0.07340
C1167       C  0.98602335  0.22709933  0.85838747    -0.02450
C1168       C  0.98557777  0.22742419  0.89069901    -0.02460
C1169       C  0.50006074  0.25161779  0.90751847     0.07470
C1170       C  0.51416237  0.27581552  0.89124449    -0.02650
Br1171     Br  0.53628769  0.30832413  0.91247551    -0.01200
Br1172     Br  0.52986461  0.31037849  0.83686809    -0.01270
Br1173     Br  0.96336579  0.19515385  0.91110446    -0.01230
Br1174     Br  0.96911784  0.19249185  0.83571196    -0.01220
C1175       C  0.52236158  0.23353900  0.64090811    -0.02340
C1176       C  0.99874001  0.24856547  0.65750035     0.07340
C1177       C  0.97507996  0.26379637  0.64107104    -0.02450
C1178       C  0.97491722  0.26353962  0.60873524    -0.02460
C1179       C  0.99893223  0.24933613  0.59250478     0.07470
C1180       C  0.52273490  0.23455764  0.60861086    -0.02650
Br1181     Br  0.55669342  0.21678778  0.58632443    -0.01200
Br1182     Br  0.55366374  0.20995447  0.66170837    -0.01270
Br1183     Br  0.94100731  0.28160818  0.58646098    -0.01230
Br1184     Br  0.94345025  0.28672543  0.66215733    -0.01220
C1185       C  0.60902547  0.02075448  0.73335684    -0.02340
C1186       C  0.59279909  0.49870526  0.75023618     0.07340
C1187       C  0.60906796  0.47633229  0.76688760    -0.02450
C1188       C  0.64143384  0.47613930  0.76690020    -0.02460
C1189       C  0.65782508  0.49825514  0.74994685     0.07470
C1190       C  0.64133240  0.02024973  0.73275699    -0.02650
Br1191     Br  0.66246008  0.04886032  0.70664948    -0.01200
Br1192     Br  0.58707402  0.05287395  0.71220697    -0.01270
Br1193     Br  0.66275042  0.44591103  0.79124574    -0.01230
Br1194     Br  0.58703917  0.44512604  0.78898006    -0.01220
C1195       C  0.89113335  0.48161187  0.72955556    -0.02340
C1196       C  0.90801561  0.00180648  0.74887543     0.07340
C1197       C  0.89230309  0.02272006  0.76811599    -0.02450
C1198       C  0.85996418  0.02276834  0.76881089    -0.02460
C1199       C  0.84301284  0.00216017  0.74987787     0.07470
C1200       C  0.85880578  0.48202230  0.72978741    -0.02650
Br1201     Br  0.83648090  0.45590301  0.70109314    -0.01200
Br1202     Br  0.91206312  0.45222034  0.70353192    -0.01270
Br1203     Br  0.83936228  0.05056427  0.79675963    -0.01230
Br1204     Br  0.91494892  0.05249199  0.79264948    -0.01220
C1205       C  0.97469290  0.39180855  0.76261221    -0.02340
C1206       C  0.49843980  0.40756375  0.74767762     0.07340
C1207       C  0.52155723  0.39090314  0.73242480    -0.02450
C1208       C  0.52110322  0.35857413  0.73224599    -0.02460
C1209       C  0.49793503  0.34253646  0.74824703     0.07470
C1210       C  0.97463254  0.35949057  0.76338313    -0.02650
Br1211     Br  0.94313846  0.33918713  0.78672646    -0.01200
Br1212     Br  0.94134503  0.41462063  0.78095318    -0.01270
Br1213     Br  0.55170899  0.33686561  0.70849394    -0.01230
Br1214     Br  0.55470852  0.41242786  0.71268769    -0.01220
C1215       C  0.97863352  0.10809225  0.73399935    -0.02340
C1216       C  0.00089080  0.09223483  0.75133289     0.07340
C1217       C  0.52275889  0.10890294  0.76886857    -0.02450
C1218       C  0.52227925  0.14125694  0.76920717    -0.02460
C1219       C  0.50052603  0.15723919  0.75113020     0.07470
C1220       C  0.97882752  0.14038173  0.73334109    -0.02650
Br1221     Br  0.95011504  0.16101673  0.70651173    -0.01200
Br1222     Br  0.94666069  0.08564200  0.71227378    -0.01270
Br1223     Br  0.55063981  0.16326496  0.79585262    -0.01230
Br1224     Br  0.55431279  0.08747489  0.79152338    -0.01220
O1225       O  0.95650122  0.50131924  0.22364495    -0.74920
O1226       O  0.54436342  0.99894941  0.22439348    -0.74950
O1227       O  0.99926009  0.95612511  0.22301647    -0.75000
O1228       O  0.50157727  0.54399110  0.22497979    -0.75050
O1229       O  0.00084713  0.54363252  0.27615387    -0.74990
O1230       O  0.49986141  0.95567462  0.27422627    -0.74960
O1231       O  0.54441925  0.49923790  0.27559255    -0.74940
O1232       O  0.95647395  0.00002391  0.27477716    -0.75000
Ni1233     Ni  0.00044324  0.50009822  0.22218865     1.25410
Ni1234     Ni  0.50042425  0.99961704  0.27701959     1.25360
C1235       C  0.94199890  0.50100865  0.24909145     0.87260
C1236       C  0.55885576  0.99891590  0.25009661     0.87190
C1237       C  0.49922776  0.94146030  0.24831486     0.87220
C1238       C  0.00124921  0.55828161  0.25084241     0.87390
O1239       O  0.97444262  0.70549672  0.25207681    -0.74920
O1240       O  0.97302951  0.79325945  0.24802773    -0.74950
O1241       O  0.97359101  0.74682240  0.20621353    -0.75000
O1242       O  0.97378901  0.75155841  0.29405211    -0.75050
O1243       O  0.52504230  0.75027095  0.29436422    -0.74990
O1244       O  0.52450787  0.75079499  0.20642568    -0.74960
O1245       O  0.52401726  0.79426490  0.25124950    -0.74940
O1246       O  0.52549087  0.70632267  0.24959672    -0.75000
Ni1247     Ni  0.97188049  0.74928074  0.25010766     1.25410
Ni1248     Ni  0.52660638  0.75040425  0.25041900     1.25360
C1249       C  0.50018005  0.69134801  0.25096723     0.87260
C1250       C  0.49830240  0.80836392  0.24924653     0.87190
C1251       C  0.99897252  0.74865729  0.19170329     0.87220
C1252       C  0.99945689  0.75117041  0.30863202     0.87390
O1253       O  0.79391684  0.52679307  0.25121720    -0.74920
O1254       O  0.70602109  0.52463797  0.25209850    -0.74950
O1255       O  0.75045986  0.52511168  0.29564711    -0.75000
O1256       O  0.74941535  0.52644563  0.20777590    -0.75050
O1257       O  0.75142409  0.97524869  0.20649310    -0.74990
O1258       O  0.75058790  0.97386285  0.29422306    -0.74960
O1259       O  0.70702586  0.97361091  0.24926895    -0.74940
O1260       O  0.79494961  0.97568340  0.25118356    -0.75000
Ni1261     Ni  0.74991212  0.52758323  0.25176424     1.25410
Ni1262     Ni  0.75103978  0.97277715  0.25027897     1.25360
C1263       C  0.80896435  0.00155386  0.25092193     0.87260
C1264       C  0.69195620  0.99881570  0.25046852     0.87190
C1265       C  0.75043435  0.49925889  0.30929786     0.87220
C1266       C  0.75049778  0.50103148  0.19275800     0.87390
O1267       O  0.72503200  0.54412829  0.49951225    -0.74920
O1268       O  0.72549997  0.95654024  0.00346266    -0.74950
O1269       O  0.72638632  0.50279339  0.04537943    -0.75000
O1270       O  0.72476840  0.99753610  0.45755440    -0.75050
O1271       O  0.77542008  0.50185812  0.45717202    -0.74990
O1272       O  0.77722889  0.99900658  0.04488801    -0.74960
O1273       O  0.77639266  0.95658452  0.49919387    -0.74940
O1274       O  0.77626037  0.54451632  0.00261842    -0.75000
Ni1275     Ni  0.72358558  0.50029219  0.00150259     1.25410
Ni1276     Ni  0.77817515  0.00053612  0.50097523     1.25360
C1277       C  0.75054435  0.55870859  0.50085161     0.87260
C1278       C  0.75094454  0.94204637  0.00128122     0.87190
C1279       C  0.75206781  0.00063134  0.05978996     0.87220
C1280       C  0.74991043  0.49920836  0.44260236     0.87390
O1281       O  0.95562946  0.77566753  0.00153800    -0.74920
O1282       O  0.54350379  0.77687941  0.50041603    -0.74950
O1283       O  0.99837772  0.77675514  0.45694660    -0.75000
O1284       O  0.50026836  0.77572644  0.04494196    -0.75050
O1285       O  0.99843174  0.72454443  0.04351475    -0.74990
O1286       O  0.50237107  0.72592973  0.45582973    -0.74960
O1287       O  0.54409933  0.72584288  0.00212891    -0.74940
O1288       O  0.95629436  0.72479482  0.49701557    -0.75000
Ni1289     Ni  0.99943510  0.77811076  0.50101534     1.25410
Ni1290     Ni  0.50032520  0.72345690  0.99959940     1.25360
C1291       C  0.94139249  0.75004236  0.99882972     0.87260
C1292       C  0.55831171  0.75150830  0.50143226     0.87190
C1293       C  0.50033436  0.75147342  0.44175420     0.87220
C1294       C  0.99922099  0.74990891  0.05865404     0.87390
O1295       O  0.74958389  0.70726365  0.02476445    -0.74920
O1296       O  0.75117515  0.79488759  0.02571380    -0.74950
O1297       O  0.70660190  0.75166141  0.02625949    -0.75000
O1298       O  0.79459417  0.75031950  0.02420734    -0.75050
O1299       O  0.79308062  0.75087760  0.47301934    -0.74990
O1300       O  0.70521436  0.75077080  0.47510552    -0.74960
O1301       O  0.74923927  0.79472769  0.47454644    -0.74940
O1302       O  0.74954613  0.70677228  0.47404576    -0.75000
Ni1303     Ni  0.75058728  0.75105183  0.02704902     1.25410
Ni1304     Ni  0.74915645  0.75077488  0.47234679     1.25360
C1305       C  0.74960354  0.69221752  0.49941768     0.87260
C1306       C  0.75026950  0.80926217  0.50028374     0.87190
C1307       C  0.69145176  0.75131307  0.00094748     0.87220
C1308       C  0.80831140  0.75046201  0.99828943     0.87390
C1309       C  0.89063876  0.72573110  0.01197287    -0.02340
C1310       C  0.90721924  0.74966795  0.99784240     0.07340
C1311       C  0.89073003  0.77329939  0.48277017    -0.02450
C1312       C  0.85837892  0.77368146  0.48316100    -0.02460
C1313       C  0.84219057  0.74995849  0.99751662     0.07470
C1314       C  0.85832823  0.72556054  0.01100020    -0.02650
Br1315     Br  0.83609627  0.69071912  0.02637281    -0.01200
Br1316     Br  0.91139017  0.69360737  0.03428689    -0.01270
Br1317     Br  0.83629030  0.80724274  0.46458073    -0.01230
Br1318     Br  0.91187939  0.80457256  0.45990125    -0.01220
C1319       C  0.60910574  0.77291259  0.01994361    -0.02340
C1320       C  0.59238056  0.75164629  0.50147601     0.07340
C1321       C  0.60850263  0.73015121  0.48315152    -0.02450
C1322       C  0.64079127  0.72948614  0.48385775    -0.02460
C1323       C  0.65746735  0.75133090  0.00148030     0.07470
C1324       C  0.64147325  0.77315911  0.01941801    -0.02650
Br1325     Br  0.66373085  0.80437148  0.04238955    -0.01200
Br1326     Br  0.58799190  0.80082329  0.04735890    -0.01270
Br1327     Br  0.66207777  0.69722512  0.46200289    -0.01230
Br1328     Br  0.58681950  0.70240169  0.45551003    -0.01220
C1329       C  0.72820911  0.85939682  0.48359034    -0.02340
C1330       C  0.75045192  0.84317314  0.00067989     0.07340
C1331       C  0.77258520  0.85945477  0.01829961    -0.02450
C1332       C  0.77243151  0.89175651  0.01893904    -0.02460
C1333       C  0.75079722  0.90805302  0.00109967     0.07470
C1334       C  0.72875777  0.89167564  0.48326981    -0.02650
Br1335     Br  0.70002421  0.91304225  0.45704363    -0.01200
Br1336     Br  0.69577251  0.83757230  0.46192598    -0.01270
Br1337     Br  0.80096330  0.91333930  0.04578283    -0.01230
Br1338     Br  0.80403090  0.83769980  0.04082864    -0.01220
C1339       C  0.75707381  0.64154306  0.02714042    -0.02340
C1340       C  0.74988506  0.65769548  0.49960806     0.07340
C1341       C  0.74293008  0.64018472  0.47249381    -0.02450
C1342       C  0.74329450  0.60784553  0.47310614    -0.02460
C1343       C  0.75028579  0.59248471  0.50038329     0.07470
C1344       C  0.75681511  0.60924509  0.02730321    -0.02650
Br1345     Br  0.76409685  0.58748632  0.06500312    -0.01200
Br1346     Br  0.76822164  0.66195708  0.06546095    -0.01270
Br1347     Br  0.73457997  0.58407601  0.43628010    -0.01230
Br1348     Br  0.73211275  0.65888378  0.43378139    -0.01220
C1349       C  0.77657761  0.49008668  0.35933365    -0.02340
C1350       C  0.75010628  0.49870582  0.34304262     0.07340
C1351       C  0.72319679  0.00646816  0.35883847    -0.02450
C1352       C  0.72264946  0.00605010  0.39115938    -0.02460
C1353       C  0.74961340  0.49824106  0.40815852     0.07470
C1354       C  0.77655316  0.48975780  0.39165276    -0.02650
Br1355     Br  0.81377791  0.47608086  0.41195308    -0.01200
Br1356     Br  0.81325321  0.47920633  0.33693908    -0.01270
Br1357     Br  0.68428932  0.01680036  0.41073297    -0.01230
Br1358     Br  0.68672066  0.01718324  0.33571539    -0.01220
C1359       C  0.72669083  0.98756398  0.14222240    -0.02340
C1360       C  0.75087065  0.50128632  0.15899486     0.07340
C1361       C  0.77609728  0.51386479  0.14359328    -0.02450
C1362       C  0.77729461  0.51273912  0.11129812    -0.02460
C1363       C  0.75242414  0.49991961  0.09403881     0.07470
C1364       C  0.72749731  0.98653578  0.10995103    -0.02650
Br1365     Br  0.69528278  0.96416878  0.08843409    -0.01200
Br1366     Br  0.69178645  0.97102386  0.16369817    -0.01270
Br1367     Br  0.81373055  0.52859912  0.09186371    -0.01230
Br1368     Br  0.80951439  0.53208702  0.16703868    -0.01220
C1369       C  0.51324795  0.77594870  0.35890555    -0.02340
C1370       C  0.99953654  0.75145672  0.34248475     0.07340
C1371       C  0.98598287  0.72709642  0.35838214    -0.02450
C1372       C  0.98552567  0.72742121  0.39069346    -0.02460
C1373       C  0.50000191  0.75161527  0.40751805     0.07470
C1374       C  0.51410748  0.77581427  0.39124914    -0.02650
Br1375     Br  0.53622370  0.80832441  0.41248749    -0.01200
Br1376     Br  0.52982667  0.81037854  0.33687855    -0.01270
Br1377     Br  0.96330794  0.69514988  0.41109118    -0.01230
Br1378     Br  0.96908749  0.69248801  0.33570050    -0.01220
C1379       C  0.52240771  0.73354964  0.14091497    -0.02340
C1380       C  0.99877901  0.74857250  0.15750038     0.07340
C1381       C  0.97512412  0.76380406  0.14106432    -0.02450
C1382       C  0.97497210  0.76354959  0.10872866    -0.02460
C1383       C  0.99899311  0.74934832  0.09250519     0.07470
C1384       C  0.52279167  0.73457070  0.10861796    -0.02650
Br1385     Br  0.55675824  0.71680449  0.08634100    -0.01200
Br1386     Br  0.55370533  0.70996667  0.16172373    -0.01270
Br1387     Br  0.94106809  0.78161748  0.08644481    -0.01230
Br1388     Br  0.94348672  0.78673100  0.16214140    -0.01220
C1389       C  0.60902559  0.52075347  0.23335274    -0.02340
C1390       C  0.59279973  0.99870360  0.25023172     0.07340
C1391       C  0.60906900  0.97632956  0.26688121    -0.02450
C1392       C  0.64143483  0.97613611  0.26689234    -0.02460
C1393       C  0.65782567  0.99825297  0.24993977     0.07470
C1394       C  0.64133252  0.52024857  0.23275166    -0.02650
Br1395     Br  0.66245955  0.54886040  0.20664506    -0.01200
Br1396     Br  0.58707342  0.55287406  0.21220537    -0.01270
Br1397     Br  0.66275169  0.94590566  0.29123503    -0.01230
Br1398     Br  0.58704064  0.94512282  0.28897346    -0.01220
C1399       C  0.89113363  0.98160949  0.22956088    -0.02340
C1400       C  0.90801634  0.50180472  0.24887959     0.07340
C1401       C  0.89230433  0.52271869  0.26812016    -0.02450
C1402       C  0.85996541  0.52276681  0.26881613    -0.02460
C1403       C  0.84301360  0.50215827  0.24988398     0.07470
C1404       C  0.85880609  0.98201999  0.22979350    -0.02650
Br1405     Br  0.83648083  0.95590041  0.20109973    -0.01200
Br1406     Br  0.91206278  0.95221714  0.20353762    -0.01270
Br1407     Br  0.83936415  0.55056320  0.29676481    -0.01230
Br1408     Br  0.91495086  0.55249152  0.29265183    -0.01220
C1409       C  0.97469515  0.89180690  0.26261507    -0.02340
C1410       C  0.49844090  0.90756223  0.24767863     0.07340
C1411       C  0.52155762  0.89090158  0.23242453    -0.02450
C1412       C  0.52110415  0.85857259  0.23224671    -0.02460
C1413       C  0.49793685  0.84253528  0.24824884     0.07470
C1414       C  0.97463509  0.85948894  0.26338593    -0.02650
Br1415     Br  0.94314297  0.83918390  0.28673032    -0.01200
Br1416     Br  0.94134844  0.91461844  0.28095862    -0.01270
Br1417     Br  0.55170904  0.83686261  0.20849500    -0.01230
Br1418     Br  0.55470703  0.91242595  0.21268413    -0.01220
C1419       C  0.97863637  0.60809102  0.23399616    -0.02340
C1420       C  0.00089190  0.59223354  0.25133187     0.07340
C1421       C  0.52275843  0.60890169  0.26886945    -0.02450
C1422       C  0.52227853  0.64125571  0.26920841    -0.02460
C1423       C  0.50052771  0.65723818  0.25112853     0.07470
C1424       C  0.97883123  0.64038048  0.23333691    -0.02650
Br1425     Br  0.95012266  0.66101456  0.20650259    -0.01200
Br1426     Br  0.94666421  0.58564095  0.21226927    -0.01270
Br1427     Br  0.55063504  0.66326297  0.29585892    -0.01230
Br1428     Br  0.55431092  0.58747373  0.29152638    -0.01220
O1429       O  0.95650165  0.50132088  0.72364290    -0.74920
O1430       O  0.54436387  0.99895105  0.72439569    -0.74950
O1431       O  0.99926054  0.95612684  0.72301602    -0.75000
O1432       O  0.50157752  0.54399280  0.72498033    -0.75050
O1433       O  0.00084536  0.54363369  0.77615440    -0.74990
O1434       O  0.49985945  0.95567582  0.77422583    -0.74960
O1435       O  0.54441735  0.49923899  0.77559474    -0.74940
O1436       O  0.95647208  0.00002512  0.77477507    -0.75000
Ni1437     Ni  0.00044375  0.50009992  0.72218872     1.25410
Ni1438     Ni  0.50042228  0.99961819  0.77701962     1.25360
C1439       C  0.94199817  0.50101011  0.74908872     0.87260
C1440       C  0.55885506  0.99891727  0.75009947     0.87190
C1441       C  0.49922694  0.94146178  0.74831425     0.87220
C1442       C  0.00124838  0.55828300  0.75084309     0.87390
O1443       O  0.97444135  0.70549758  0.75208821    -0.74920
O1444       O  0.97302738  0.79326022  0.74803614    -0.74950
O1445       O  0.97357112  0.74682120  0.70622374    -0.75000
O1446       O  0.97380531  0.75156105  0.79406247    -0.75050
O1447       O  0.52505853  0.75027276  0.79435414    -0.74990
O1448       O  0.52448796  0.75079335  0.70641545    -0.74960
O1449       O  0.52401590  0.79426516  0.75123850    -0.74940
O1450       O  0.52548864  0.70632300  0.74958806    -0.75000
Ni1451     Ni  0.97187873  0.74928160  0.75011859     1.25410
Ni1452     Ni  0.52660454  0.75040450  0.75040818     1.25360
C1453       C  0.50017832  0.69134875  0.75096882     0.87260
C1454       C  0.49830062  0.80836466  0.74924496     0.87190
C1455       C  0.99894679  0.74865445  0.69170328     0.87220
C1456       C  0.99947896  0.75117293  0.80863221     0.87390
O1457       O  0.79391601  0.52679430  0.75121166    -0.74920
O1458       O  0.70602076  0.52463934  0.75210384    -0.74950
O1459       O  0.75046538  0.52511364  0.79564695    -0.75000
O1460       O  0.74940867  0.52644577  0.70777577    -0.75050
O1461       O  0.75141708  0.97524880  0.70649366    -0.74990
O1462       O  0.75059355  0.97386479  0.79422402    -0.74960
O1463       O  0.70702495  0.97361217  0.74927543    -0.74940
O1464       O  0.79494912  0.97568461  0.75117861    -0.75000
Ni1465     Ni  0.74991156  0.52758436  0.75176408     1.25410
Ni1466     Ni  0.75103910  0.97277823  0.75027976     1.25360
C1467       C  0.80896365  0.00155520  0.75091597     0.87260
C1468       C  0.69195559  0.99881718  0.75047523     0.87190
C1469       C  0.75044247  0.49926114  0.80929832     0.87220
C1470       C  0.75048834  0.50103129  0.69275817     0.87390
O1471       O  0.72505965  0.54413378  0.99951352    -0.74920
O1472       O  0.72546883  0.95653630  0.50346147    -0.74950
O1473       O  0.72635812  0.50278893  0.54537918    -0.75000
O1474       O  0.72479574  0.99754085  0.95755615    -0.75050
O1475       O  0.77544730  0.50186505  0.95717167    -0.74990
O1476       O  0.77720047  0.99900053  0.54488691    -0.74960
O1477       O  0.77642371  0.95659191  0.99919416    -0.74940
O1478       O  0.77623268  0.54451059  0.50261744    -0.75000
Ni1479     Ni  0.72355705  0.50028758  0.50150154     1.25410
Ni1480     Ni  0.77820372  0.00054276  0.00097561     1.25360
C1481       C  0.75057216  0.55871418  0.00085320     0.87260
C1482       C  0.75091212  0.94204070  0.50127934     0.87190
C1483       C  0.75204016  0.00062713  0.55978936     0.87220
C1484       C  0.74993635  0.49921474  0.94260310     0.87390
O1485       O  0.95555907  0.77565903  0.50153819    -0.74920
O1486       O  0.54357414  0.77688680  0.00041495    -0.74950
O1487       O  0.99844711  0.77676096  0.95694579    -0.75000
O1488       O  0.50019816  0.77571649  0.54494258    -0.75050
O1489       O  0.99836123  0.72453456  0.54351294    -0.74990
O1490       O  0.50243920  0.72593538  0.95583141    -0.74960
O1491       O  0.54402943  0.72583548  0.50212837    -0.74940
O1492       O  0.95636406  0.72480293  0.99701883    -0.75000
Ni1493     Ni  0.99950547  0.77811868  0.00101454     1.25410
Ni1494     Ni  0.50025541  0.72344911  0.49959752     1.25360
C1495       C  0.94132239  0.75003392  0.49882753     0.87260
C1496       C  0.55838177  0.75151556  0.00143185     0.87190
C1497       C  0.50040095  0.75147825  0.94175462     0.87220
C1498       C  0.99915231  0.74989828  0.55865349     0.87390
O1499       O  0.74951470  0.70725807  0.52476278    -0.74920
O1500       O  0.75110806  0.79488176  0.52571156    -0.74950
O1501       O  0.70653288  0.75165673  0.52625859    -0.75000
O1502       O  0.79452527  0.75031256  0.52420363    -0.75050
O1503       O  0.79315112  0.75088402  0.97302307    -0.74990
O1504       O  0.70528463  0.75077654  0.97510638    -0.74960
O1505       O  0.74930820  0.79473358  0.97454858    -0.74940
O1506       O  0.74961582  0.70677844  0.97404747    -0.75000
Ni1507     Ni  0.75051847  0.75104612  0.52704688     1.25410
Ni1508     Ni  0.74922674  0.75078092  0.97234892     1.25360
C1509       C  0.74967072  0.69222335  0.99941915     0.87260
C1510       C  0.75033485  0.80926798  0.00028597     0.87190
C1511       C  0.69138207  0.75130780  0.50094693     0.87220
C1512       C  0.80824158  0.75045498  0.49828520     0.87390
C1513       C  0.89056789  0.72571913  0.51196283    -0.02340
C1514       C  0.90714907  0.74965926  0.49783837     0.07340
C1515       C  0.89079973  0.77330525  0.98277052    -0.02450
C1516       C  0.85844862  0.77368729  0.98316222    -0.02460
C1517       C  0.84212050  0.74995046  0.49751120     0.07470
C1518       C  0.85825743  0.72554913  0.51098924    -0.02650
Br1519     Br  0.83602434  0.69070395  0.52635186    -0.01200
Br1520     Br  0.91131766  0.69358940  0.53426969    -0.01270
Br1521     Br  0.83635973  0.80724652  0.96457863    -0.01230
Br1522     Br  0.91194872  0.80457435  0.95989577    -0.01220
C1523       C  0.60903566  0.77290702  0.51994274    -0.02340
C1524       C  0.59245052  0.75165326  0.00147545     0.07340
C1525       C  0.60857228  0.73015911  0.98314968    -0.02450
C1526       C  0.64086089  0.72949353  0.98385595    -0.02460
C1527       C  0.65739756  0.75132502  0.50148038     0.07470
C1528       C  0.64140320  0.77315414  0.51941669    -0.02650
Br1529     Br  0.66366057  0.80436868  0.54238536    -0.01200
Br1530     Br  0.58792172  0.80081895  0.54735675    -0.01270
Br1531     Br  0.66214703  0.69723373  0.96199883    -0.01230
Br1532     Br  0.58688862  0.70241162  0.95550666    -0.01220
C1533       C  0.72825950  0.85939683  0.98359500    -0.02340
C1534       C  0.75039535  0.84316743  0.50067751     0.07340
C1535       C  0.77253275  0.85944357  0.51829749    -0.02450
C1536       C  0.77238889  0.89174547  0.51893515    -0.02460
C1537       C  0.75075990  0.90804733  0.50109465     0.07470
C1538       C  0.72879834  0.89167588  0.98327601    -0.02650
Br1539     Br  0.70005600  0.91303542  0.95705366    -0.01200
Br1540     Br  0.69582862  0.83756368  0.96193077    -0.01270
Br1541     Br  0.80092667  0.91332155  0.54577781    -0.01230
Br1542     Br  0.80397025  0.83768087  0.54083034    -0.01220
C1543       C  0.75702467  0.64153945  0.52713867    -0.02340
C1544       C  0.74994338  0.65770118  0.99960884     0.07340
C1545       C  0.74298474  0.64019235  0.97249413    -0.02450
C1546       C  0.74333512  0.60785299  0.97310756    -0.02460
C1547       C  0.75031603  0.59249029  0.00038611     0.07470
C1548       C  0.75678141  0.60924131  0.52730010    -0.02650
Br1549     Br  0.76407894  0.58748439  0.56499811    -0.01200
Br1550     Br  0.76816116  0.66195693  0.56546072    -0.01270
Br1551     Br  0.73461612  0.58408561  0.93628122    -0.01230
Br1552     Br  0.73218446  0.65889426  0.93377845    -0.01220
C1553       C  0.77659254  0.49008870  0.85933109    -0.02340
C1554       C  0.75011946  0.49870908  0.84304324     0.07340
C1555       C  0.72321308  0.00647479  0.85884253    -0.02450
C1556       C  0.72267056  0.00605949  0.89116356    -0.02460
C1557       C  0.74963627  0.49824827  0.90815934     0.07470
C1558       C  0.77657262  0.48976191  0.89165037    -0.02650
Br1559     Br  0.81379865  0.47608343  0.91194711    -0.01200
Br1560     Br  0.81326379  0.47920328  0.83693208    -0.01270
Br1561     Br  0.68431499  0.01681750  0.91074197    -0.01230
Br1562     Br  0.68673391  0.01718973  0.83572396    -0.01220
C1563       C  0.72667260  0.98756438  0.64222609    -0.02340
C1564       C  0.75085567  0.50128563  0.65899489     0.07340
C1565       C  0.77608027  0.51386302  0.64358946    -0.02450
C1566       C  0.77727291  0.51273669  0.61129416    -0.02460
C1567       C  0.75239919  0.49991820  0.59403840     0.07470
C1568       C  0.72747381  0.98653647  0.60995441    -0.02650
Br1569     Br  0.69525424  0.96417250  0.58844212    -0.01200
Br1570     Br  0.69177161  0.97102467  0.66370742    -0.01270
Br1571     Br  0.81370761  0.52859406  0.59185511    -0.01230
Br1572     Br  0.80950148  0.53208425  0.66702989    -0.01220
C1573       C  0.51329145  0.77594990  0.85890103    -0.02340
C1574       C  0.99957215  0.75145902  0.84248508     0.07340
C1575       C  0.98602334  0.72709934  0.85838746    -0.02450
C1576       C  0.98557777  0.72742420  0.89069899    -0.02460
C1577       C  0.50006073  0.75161780  0.90751845     0.07470
C1578       C  0.51416235  0.77581554  0.89124448    -0.02650
Br1579     Br  0.53628765  0.80832416  0.91247550    -0.01200
Br1580     Br  0.52986458  0.81037851  0.83686807    -0.01270
Br1581     Br  0.96336579  0.69515385  0.91110444    -0.01230
Br1582     Br  0.96911784  0.69249185  0.83571195    -0.01220
C1583       C  0.52236155  0.73353897  0.64090810    -0.02340
C1584       C  0.99874000  0.74856547  0.65750034     0.07340
C1585       C  0.97507998  0.76379640  0.64107103    -0.02450
C1586       C  0.97491723  0.76353965  0.60873522    -0.02460
C1587       C  0.99893223  0.74933613  0.59250477     0.07470
C1588       C  0.52273488  0.73455761  0.60861085    -0.02650
Br1589     Br  0.55669339  0.71678773  0.58632442    -0.01200
Br1590     Br  0.55366369  0.70995442  0.66170837    -0.01270
Br1591     Br  0.94100734  0.78160824  0.58646096    -0.01230
Br1592     Br  0.94345029  0.78672549  0.66215732    -0.01220
C1593       C  0.60902546  0.52075448  0.73335685    -0.02340
C1594       C  0.59279909  0.99870525  0.75023615     0.07340
C1595       C  0.60906796  0.97633225  0.76688754    -0.02450
C1596       C  0.64143384  0.97613926  0.76690016    -0.02460
C1597       C  0.65782509  0.99825512  0.74994684     0.07470
C1598       C  0.64133240  0.52024974  0.73275699    -0.02650
Br1599     Br  0.66246006  0.54886030  0.70664945    -0.01200
Br1600     Br  0.58707401  0.55287394  0.71220695    -0.01270
Br1601     Br  0.66275040  0.94591096  0.79124568    -0.01230
Br1602     Br  0.58703915  0.94512597  0.78897995    -0.01220
C1603       C  0.89113336  0.98161184  0.72955559    -0.02340
C1604       C  0.90801560  0.50180648  0.74887542     0.07340
C1605       C  0.89230308  0.52272004  0.76811601    -0.02450
C1606       C  0.85996417  0.52276831  0.76881091    -0.02460
C1607       C  0.84301284  0.50216016  0.74987786     0.07470
C1608       C  0.85880578  0.98202228  0.72978744    -0.02650
Br1609     Br  0.83648091  0.95590297  0.70109320    -0.01200
Br1610     Br  0.91206313  0.95222028  0.70353200    -0.01270
Br1611     Br  0.83936227  0.55056420  0.79675969    -0.01230
Br1612     Br  0.91494890  0.55249195  0.79264952    -0.01220
C1613       C  0.97469293  0.89180855  0.76261226    -0.02340
C1614       C  0.49843979  0.90756375  0.74767761     0.07340
C1615       C  0.52155718  0.89090314  0.73242472    -0.02450
C1616       C  0.52110316  0.85857413  0.73224590    -0.02460
C1617       C  0.49793501  0.84253646  0.74824701     0.07470
C1618       C  0.97463258  0.85949057  0.76338318    -0.02650
Br1619     Br  0.94313858  0.83918712  0.78672661    -0.01200
Br1620     Br  0.94134511  0.91462062  0.78095333    -0.01270
Br1621     Br  0.55170884  0.83686559  0.70849376    -0.01230
Br1622     Br  0.55470843  0.91242784  0.71268753    -0.01220
C1623       C  0.97863351  0.60809225  0.73399935    -0.02340
C1624       C  0.00089079  0.59223483  0.75133290     0.07340
C1625       C  0.52275888  0.60890294  0.76886857    -0.02450
C1626       C  0.52227924  0.64125694  0.76920717    -0.02460
C1627       C  0.50052602  0.65723920  0.75113020     0.07470
C1628       C  0.97882752  0.64038173  0.73334109    -0.02650
Br1629     Br  0.95011503  0.66101672  0.70651172    -0.01200
Br1630     Br  0.94666068  0.58564199  0.71227379    -0.01270
Br1631     Br  0.55063981  0.66326497  0.79585261    -0.01230
Br1632     Br  0.55431278  0.58747490  0.79152338    -0.01220
loop_ 
_geom_bond_atom_site_label_1 
_geom_bond_atom_site_label_2 
_geom_bond_distance 
_geom_bond_site_symmetry_2 
_ccdc_geom_bond_type 
O1           Ni9   1.915       .  S
O1           C11   1.281       .  A
O2        Ni1233   1.914       .  S
O2           C12   1.281       .  A
O3         Ni417   1.917       .  S
O3          C829   1.281       .  A
O4         Ni825   1.915       .  S
O4          C830   1.281       .  A
O5        Ni1234   1.919   1_545  S
O5           C14   1.281       .  A
O6          Ni10   1.917   1_655  S
O6           C13   1.281       .  A
O7         Ni418   1.917       .  S
O7          C420   1.281       .  A
O8         Ni826   1.915       .  S
O8          C419   1.281       .  A
Ni9        O1226   1.914   1_545  S
Ni9         O411   1.917   1_545  S
Ni9         O820   1.915       .  S
Ni9       Ni1234   2.389   1_545  S
Ni10       O1229   1.919       .  S
Ni10        O415   1.917       .  S
Ni10        O824   1.915   1_455  S
Ni10      Ni1233   2.389       .  S
C11         O416   1.281       .  A
C11         C176   1.480       .  S
C12         O415   1.281       .  A
C12         C166   1.478       .  S
C13         O819   1.281       .  A
C13         C186   1.477       .  S
C14         O820   1.281       .  A
C14         C196   1.479       .  S
O15         Ni23   1.914       .  S
O15         C841   1.280       .  A
O16         Ni23   1.920       .  S
O16         C842   1.282       .  A
O17         Ni23   1.916       .  S
O17          C27   1.280       .  A
O18         Ni23   1.917       .  S
O18          C28   1.281       .  A
O19         Ni24   1.917       .  S
O19         C844   1.280   1_455  A
O20         Ni24   1.918       .  S
O20         C843   1.281   1_455  A
O21         Ni24   1.914       .  S
O21          C26   1.280   1_455  A
O22         Ni24   1.921       .  S
O22          C25   1.282       .  A
Ni23       Ni840   2.382       .  S
Ni24       Ni839   2.382   1_455  S
C25         O831   1.280   1_455  A
C25         C199   1.486       .  S
C26         O832   1.282       .  A
C26         C189   1.490       .  S
C27         O836   1.281       .  A
C27         C156   1.490       .  S
C28         O835   1.280       .  A
C28         C146   1.475       .  S
O29         Ni37   1.916       .  S
O29         C447   1.281       .  A
O30         Ni37   1.915       .  S
O30         C448   1.281   1_545  A
O31         Ni37   1.916       .  S
O31          C41   1.280   1_545  A
O32         Ni37   1.917       .  S
O32          C42   1.280       .  A
O33         Ni38   1.912       .  S
O33         C450   1.280       .  A
O34         Ni38   1.915       .  S
O34         C449   1.280       .  A
O35         Ni38   1.916       .  S
O35          C40   1.281       .  A
O36         Ni38   1.915       .  S
O36          C39   1.281       .  A
Ni37       Ni446   2.389   1_545  S
Ni38       Ni445   2.389       .  S
C39         O437   1.281       .  A
C39         C587   1.483       .  S
C40         O438   1.281       .  A
C40         C169   1.486       .  S
C41         O442   1.280       .  A
C41         C126   1.471       .  S
C42         O441   1.280   1_545  A
C42         C136   1.471       .  S
O43        Ni255   1.914       .  S
O43          C53   1.279       .  A
O44        Ni459   1.911       .  S
O44          C54   1.279       .  A
O45         Ni51   1.916       .  S
O45         C463   1.282       .  A
O46        Ni663   1.918       .  S
O46         C464   1.281       .  A
O47        Ni460   1.913       .  S
O47          C56   1.279   1_545  A
O48        Ni256   1.916       .  S
O48          C55   1.280       .  A
O49         Ni52   1.917       .  S
O49         C258   1.281       .  A
O50        Ni664   1.918       .  S
O50         C257   1.281       .  A
Ni51        O247   1.914   1_554  S
Ni51        O452   1.911   1_545  S
Ni51        O658   1.918   1_544  S
Ni51       Ni664   2.378       .  S
Ni52        O455   1.913       .  S
Ni52        O252   1.916       .  S
Ni52        O662   1.919       .  S
Ni52       Ni663   2.378       .  S
C53         O254   1.281       .  A
C53         C119   1.472       .  S
C54         O253   1.281   1_554  A
C54         C109   1.481       .  S
C55         O453   1.282       .  A
C55         C547   1.493       .  S
C56         O454   1.281       .  A
C56         C129   1.501       .  S
O57        Ni269   1.913       .  S
O57          C67   1.280   1_554  A
O58        Ni881   1.919   1_455  S
O58          C68   1.281       .  A
O59         Ni65   1.920       .  S
O59         C885   1.281       .  A
O60       Ni1085   1.918   1_455  S
O60         C886   1.281   1_455  A
O61        Ni882   1.916   1_554  S
O61          C70   1.280       .  A
O62        Ni270   1.914       .  S
O62          C69   1.280       .  A
O63         Ni66   1.910   1_554  S
O63         C272   1.280       .  A
O64       Ni1086   1.917       .  S
O64         C271   1.281       .  A
Ni65        O261   1.913       .  S
Ni65        O874   1.919       .  S
Ni65       O1080   1.918       .  S
Ni65      Ni1086   2.382       .  S
Ni66        O877   1.916   1_456  S
Ni66        O266   1.914       .  S
Ni66       O1084   1.917   1_455  S
Ni66      Ni1085   2.382   1_456  S
C67         O268   1.281       .  A
C67          C86   1.488       .  S
C68         O267   1.280       .  A
C68          C96   1.483       .  S
C69         O875   1.281   1_455  A
C69         C149   1.492       .  S
C70         O876   1.281       .  A
C70         C159   1.475       .  S
O71         Ni79   1.910       .  S
O71         C285   1.277   1_554  A
O72         Ni79   1.912       .  S
O72         C286   1.280       .  A
O73         Ni79   1.915       .  S
O73          C83   1.280       .  A
O74         Ni79   1.921       .  S
O74          C84   1.282   1_554  A
O75         Ni80   1.912       .  S
O75         C288   1.279       .  A
O76         Ni80   1.918       .  S
O76         C287   1.281       .  A
O77         Ni80   1.916       .  S
O77          C82   1.281       .  A
O78         Ni80   1.920       .  S
O78          C81   1.281       .  A
Ni79       Ni284   2.383   1_554  S
Ni80       Ni283   2.383       .  S
C81         O275   1.277       .  A
C81         C116   1.504       .  S
C82         O276   1.280       .  A
C82         C310   1.477       .  S
C83         O280   1.281   1_554  A
C83          C99   1.480       .  S
C84         O279   1.279       .  A
C84          C89   1.476       .  S
C85          C86   1.417   1_554  A
C85          C90   1.407       .  A
C85         Br92   1.935       .  S
C86         C291   1.419       .  A
C87          C88   1.409       .  A
C87         C290   1.419       .  A
C87         Br94   1.935       .  S
C88         C293   1.408       .  A
C88         Br93   1.933       .  S
C89          C90   1.407   1_556  A
C89         C292   1.408       .  A
C90         Br91   1.929       .  S
C95         C100   1.409       .  A
C95         C300   1.415       .  A
C95        Br102   1.933       .  S
C96          C97   1.414       .  A
C96         C299   1.415       .  A
C97          C98   1.406       .  A
C97        Br104   1.935       .  S
C98         C303   1.410       .  A
C98        Br103   1.931       .  S
C99         C100   1.412       .  A
C99         C302   1.410   1_554  A
C100       Br101   1.933       .  S
C105        C110   1.407       .  A
C105        C310   1.411       .  A
C105       Br112   1.934       .  S
C106        C286   1.477       .  S
C106        C107   1.412       .  A
C106        C309   1.411   1_554  A
C107        C108   1.407       .  A
C107       Br114   1.934       .  S
C108        C109   1.414       .  A
C108       Br113   1.934       .  S
C109        C314   1.415   1_554  A
C110        C313   1.415       .  A
C110       Br111   1.934       .  S
C115        C120   1.407       .  A
C115        C320   1.430   1_554  A
C115       Br122   1.940       .  S
C116        C117   1.428       .  A
C116        C319   1.430       .  A
C117        C118   1.410       .  A
C117       Br124   1.937       .  S
C118        C119   1.402       .  A
C118       Br123   1.934       .  S
C119        C324   1.400       .  A
C120        C323   1.400       .  A
C120       Br121   1.931       .  S
C125        C126   1.402       .  A
C125        C130   1.408       .  A
C125       Br132   1.935       .  S
C126        C535   1.403   1_565  A
C127        C128   1.409       .  A
C127        C534   1.403       .  A
C127       Br134   1.934       .  S
C128        C537   1.426       .  A
C128       Br133   1.937       .  S
C129        C130   1.428       .  A
C129        C536   1.426   1_565  A
C130       Br131   1.938       .  S
C135        C140   1.407       .  A
C135        C544   1.405       .  A
C135       Br142   1.934       .  S
C136        C137   1.406       .  A
C136        C543   1.405   1_545  A
C137        C138   1.409       .  A
C137       Br144   1.934       .  S
C138        C139   1.423   1_545  A
C138       Br143   1.935       .  S
C139        C463   1.493   1_565  S
C139        C548   1.421       .  A
C140        C547   1.421       .  A
C140       Br141   1.936       .  S
C145        C150   1.409       .  A
C145        C962   1.407   1_455  A
C145       Br152   1.933       .  S
C146        C147   1.406       .  A
C146        C961   1.407       .  A
C147        C148   1.408       .  A
C147       Br154   1.934       .  S
C148        C965   1.420       .  A
C148       Br153   1.935       .  S
C149        C150   1.420       .  A
C149        C964   1.420   1_455  A
C150       Br151   1.934       .  S
C155        C160   1.409       .  A
C155        C972   1.418   1_455  A
C155       Br162   1.934       .  S
C156        C157   1.419       .  A
C156        C971   1.418       .  A
C157        C158   1.409       .  A
C157       Br164   1.934       .  S
C158        C159   1.407       .  A
C158       Br163   1.933       .  S
C159        C976   1.408       .  A
C160        C975   1.408   1_455  A
C160       Br161   1.933       .  S
C165        C170   1.407       .  A
C165        C574   1.410   1_545  A
C165       Br172   1.934       .  S
C166        C167   1.410       .  A
C166        C573   1.410       .  A
C167        C168   1.409       .  A
C167       Br174   1.934       .  S
C168        C169   1.417       .  A
C168       Br173   1.934       .  S
C169        C578   1.416       .  A
C170        C577   1.416   1_545  A
C170       Br171   1.935       .  S
C175        C180   1.407       .  A
C175        C584   1.411       .  A
C175       Br182   1.934       .  S
C176        C177   1.412       .  A
C176        C583   1.411   1_545  A
C177        C178   1.408       .  A
C177       Br184   1.934       .  S
C178        C179   1.415       .  A
C178       Br183   1.934       .  S
C179        C447   1.483       .  S
C179        C588   1.415   1_545  A
C180        C587   1.415       .  A
C180       Br181   1.935       .  S
C185        C190   1.409       .  A
C185       C1002   1.408       .  A
C185       Br192   1.933       .  S
C186        C187   1.408   1_655  A
C186       C1001   1.408       .  A
C187        C188   1.409       .  A
C187       Br194   1.934       .  S
C188        C189   1.419   1_455  A
C188       Br193   1.935       .  S
C189       C1006   1.418       .  A
C190       C1005   1.418       .  A
C190       Br191   1.934       .  S
C195        C196   1.410       .  A
C195        C200   1.408       .  A
C195       Br202   1.934       .  S
C196       C1013   1.410       .  A
C197        C198   1.410       .  A
C197       C1012   1.410       .  A
C197       Br204   1.933       .  S
C198        C199   1.416       .  A
C198       Br203   1.933       .  S
C199       C1016   1.416   1_455  A
C200       C1015   1.416       .  A
C200       Br201   1.934       .  S
O205       Ni213   1.915       .  S
O205        C215   1.281       .  A
O206      Ni1437   1.914       .  S
O206        C216   1.281       .  A
O207       Ni621   1.917       .  S
O207       C1033   1.281       .  A
O208      Ni1029   1.915       .  S
O208       C1034   1.281       .  A
O209      Ni1438   1.919   1_545  S
O209        C218   1.281       .  A
O210       Ni214   1.917   1_655  S
O210        C217   1.281       .  A
O211       Ni622   1.917       .  S
O211        C624   1.281       .  A
O212      Ni1030   1.915       .  S
O212        C623   1.281       .  A
Ni213      O1430   1.914   1_545  S
Ni213       O615   1.917   1_545  S
Ni213      O1024   1.915       .  S
Ni213     Ni1438   2.389   1_545  S
Ni214      O1433   1.919       .  S
Ni214       O619   1.917       .  S
Ni214      O1028   1.915   1_455  S
Ni214     Ni1437   2.389       .  S
C215        O620   1.281       .  A
C215        C380   1.480       .  S
C216        O619   1.281       .  A
C216        C370   1.478       .  S
C217       O1023   1.281       .  A
C217        C390   1.477       .  S
C218       O1024   1.281       .  A
C218        C400   1.479       .  S
O219       Ni227   1.914       .  S
O219       C1045   1.280       .  A
O220       Ni227   1.920       .  S
O220       C1046   1.282       .  A
O221       Ni227   1.916       .  S
O221        C231   1.280       .  A
O222       Ni227   1.917       .  S
O222        C232   1.281       .  A
O223       Ni228   1.917       .  S
O223       C1048   1.280   1_455  A
O224       Ni228   1.918       .  S
O224       C1047   1.281   1_455  A
O225       Ni228   1.914       .  S
O225        C230   1.280   1_455  A
O226       Ni228   1.921       .  S
O226        C229   1.282       .  A
Ni227     Ni1044   2.382       .  S
Ni228     Ni1043   2.382   1_455  S
C229       O1035   1.280   1_455  A
C229        C403   1.486       .  S
C230       O1036   1.282       .  A
C230        C393   1.490       .  S
C231       O1040   1.281       .  A
C231        C360   1.490       .  S
C232       O1039   1.280       .  A
C232        C350   1.475       .  S
O233       Ni241   1.916       .  S
O233        C651   1.281       .  A
O234       Ni241   1.915       .  S
O234        C652   1.281   1_545  A
O235       Ni241   1.916       .  S
O235        C245   1.280   1_545  A
O236       Ni241   1.917       .  S
O236        C246   1.280       .  A
O237       Ni242   1.912       .  S
O237        C654   1.280       .  A
O238       Ni242   1.915       .  S
O238        C653   1.280       .  A
O239       Ni242   1.916       .  S
O239        C244   1.281       .  A
O240       Ni242   1.915       .  S
O240        C243   1.281       .  A
Ni241      Ni650   2.389   1_545  S
Ni242      Ni649   2.389       .  S
C243        O641   1.281       .  A
C243        C791   1.483       .  S
C244        O642   1.281       .  A
C244        C373   1.486       .  S
C245        O646   1.280       .  A
C245        C330   1.471       .  S
C246        O645   1.280   1_545  A
C246        C340   1.471       .  S
O247        C257   1.279   1_556  A
O248       Ni663   1.911       .  S
O248        C258   1.279       .  A
O249       Ni255   1.916       .  S
O249        C667   1.282       .  A
O250       Ni459   1.918   1_556  S
O250        C668   1.281       .  A
O251       Ni664   1.913   1_556  S
O251        C260   1.279   1_545  A
O252        C259   1.280       .  A
O253       Ni256   1.917   1_556  S
O254       Ni460   1.919       .  S
Ni255       O656   1.911   1_545  S
Ni255       O454   1.918   1_545  S
Ni255      Ni460   2.378       .  S
Ni256       O659   1.913   1_554  S
Ni256       O458   1.918       .  S
Ni256      Ni459   2.378       .  S
C257        C323   1.472       .  S
C258        C313   1.481       .  S
C259        O657   1.282       .  A
C259        C751   1.493       .  S
C260        O658   1.281       .  A
C260        C333   1.501       .  S
O261        C271   1.280       .  A
O262      Ni1085   1.919   1_455  S
O262        C272   1.281       .  A
O263       Ni269   1.920   1_556  S
O263       C1089   1.281       .  A
O264       Ni881   1.918   1_455  S
O264       C1090   1.281   1_455  A
O265      Ni1086   1.916       .  S
O265        C274   1.280       .  A
O266        C273   1.280       .  A
O267       Ni270   1.910       .  S
O268       Ni882   1.917       .  S
Ni269      O1078   1.919       .  S
Ni269       O876   1.918       .  S
Ni269      Ni882   2.382   1_554  S
Ni270      O1081   1.916   1_455  S
Ni270       O880   1.917   1_455  S
Ni270      Ni881   2.382   1_455  S
C271        C290   1.488       .  S
C272        C300   1.483       .  S
C273       O1079   1.281   1_455  A
C273        C353   1.492       .  S
C274       O1080   1.281       .  A
C274        C363   1.475       .  S
O275       Ni283   1.910       .  S
O276       Ni283   1.912       .  S
O277       Ni283   1.915       .  S
O277        C287   1.280       .  A
O278       Ni283   1.921       .  S
O278        C288   1.282       .  A
O279       Ni284   1.912       .  S
O280       Ni284   1.918       .  S
O281       Ni284   1.916       .  S
O281        C286   1.281   1_556  A
O282       Ni284   1.920       .  S
O282        C285   1.281       .  A
C285        C320   1.504       .  S
C287        C303   1.480       .  S
C288        C293   1.476       .  S
C289        C290   1.417       .  A
C289        C294   1.407       .  A
C289       Br296   1.935       .  S
C291        C292   1.409       .  A
C291       Br298   1.935       .  S
C292       Br297   1.933       .  S
C293        C294   1.407       .  A
C294       Br295   1.929       .  S
C299        C304   1.409       .  A
C299       Br306   1.933       .  S
C300        C301   1.414   1_554  A
C301        C302   1.406       .  A
C301       Br308   1.935       .  S
C302       Br307   1.931       .  S
C303        C304   1.412       .  A
C304       Br305   1.933       .  S
C309        C314   1.407       .  A
C309       Br316   1.934       .  S
C310        C311   1.412       .  A
C311        C312   1.407       .  A
C311       Br318   1.934       .  S
C312        C313   1.414       .  A
C312       Br317   1.934       .  S
C314       Br315   1.934       .  S
C319        C324   1.407       .  A
C319       Br326   1.940       .  S
C320        C321   1.428       .  A
C321        C322   1.410       .  A
C321       Br328   1.937       .  S
C322        C323   1.402   1_556  A
C322       Br327   1.934       .  S
C324       Br325   1.931       .  S
C329        C330   1.402       .  A
C329        C334   1.408       .  A
C329       Br336   1.935       .  S
C330        C739   1.403   1_565  A
C331        C738   1.403       .  A
C331        C332   1.409       .  A
C331       Br338   1.934       .  S
C332        C741   1.426       .  A
C332       Br337   1.937       .  S
C333        C740   1.426   1_565  A
C333        C334   1.428       .  A
C334       Br335   1.938       .  S
C339        C748   1.405       .  A
C339        C344   1.407       .  A
C339       Br346   1.934       .  S
C340        C747   1.405   1_545  A
C340        C341   1.406       .  A
C341        C342   1.409       .  A
C341       Br348   1.934       .  S
C342        C343   1.423   1_545  A
C342       Br347   1.935       .  S
C343        C667   1.493   1_565  S
C343        C752   1.421       .  A
C344        C751   1.421       .  A
C344       Br345   1.936       .  S
C349       C1166   1.407   1_455  A
C349        C354   1.409       .  A
C349       Br356   1.933       .  S
C350       C1165   1.407       .  A
C350        C351   1.406       .  A
C351        C352   1.408       .  A
C351       Br358   1.934       .  S
C352       C1169   1.420       .  A
C352       Br357   1.935       .  S
C353       C1168   1.420   1_455  A
C353        C354   1.420       .  A
C354       Br355   1.934       .  S
C359       C1176   1.418   1_455  A
C359        C364   1.409       .  A
C359       Br366   1.934       .  S
C360       C1175   1.418       .  A
C360        C361   1.419       .  A
C361        C362   1.409       .  A
C361       Br368   1.934       .  S
C362        C363   1.407       .  A
C362       Br367   1.933       .  S
C363       C1180   1.408       .  A
C364       C1179   1.408   1_455  A
C364       Br365   1.933       .  S
C369        C778   1.410   1_545  A
C369        C374   1.407       .  A
C369       Br376   1.934       .  S
C370        C777   1.410       .  A
C370        C371   1.410       .  A
C371        C372   1.409       .  A
C371       Br378   1.934       .  S
C372        C373   1.417       .  A
C372       Br377   1.934       .  S
C373        C782   1.416       .  A
C374        C781   1.416   1_545  A
C374       Br375   1.935       .  S
C379        C788   1.411       .  A
C379        C384   1.407       .  A
C379       Br386   1.934       .  S
C380        C787   1.411   1_545  A
C380        C381   1.412       .  A
C381        C382   1.408       .  A
C381       Br388   1.934       .  S
C382        C383   1.415       .  A
C382       Br387   1.934       .  S
C383        C651   1.483       .  S
C383        C792   1.415   1_545  A
C384        C791   1.415       .  A
C384       Br385   1.935       .  S
C389       C1206   1.408       .  A
C389        C394   1.409       .  A
C389       Br396   1.933       .  S
C390       C1205   1.408       .  A
C390        C391   1.408   1_655  A
C391        C392   1.409       .  A
C391       Br398   1.934       .  S
C392        C393   1.419   1_455  A
C392       Br397   1.935       .  S
C393       C1210   1.418       .  A
C394       C1209   1.418       .  A
C394       Br395   1.934       .  S
C399        C400   1.410       .  A
C399        C404   1.408       .  A
C399       Br406   1.934       .  S
C400       C1217   1.410       .  A
C401       C1216   1.410       .  A
C401        C402   1.410       .  A
C401       Br408   1.933       .  S
C402        C403   1.416       .  A
C402       Br407   1.933       .  S
C403       C1220   1.416   1_455  A
C404       C1219   1.416       .  A
C404       Br405   1.934       .  S
O409       Ni417   1.915       .  S
O409        C419   1.281       .  A
O410       Ni825   1.914   1_565  S
O410        C420   1.281       .  A
O411       C1237   1.281       .  A
O412      Ni1233   1.915       .  S
O412       C1238   1.281       .  A
O413       Ni826   1.919       .  S
O413        C422   1.281       .  A
O414       Ni418   1.917   1_655  S
O414        C421   1.281       .  A
O416      Ni1234   1.915   1_545  S
Ni417       O818   1.914       .  S
Ni417      O1228   1.915       .  S
Ni417      Ni826   2.389       .  S
Ni418       O821   1.919   1_565  S
Ni418      O1232   1.915   1_465  S
Ni418      Ni825   2.389   1_565  S
C419        C584   1.480       .  S
C420        C574   1.478       .  S
C421       O1227   1.281       .  A
C421        C594   1.477       .  S
C422       O1228   1.281       .  A
C422        C604   1.479       .  S
O423       Ni431   1.914       .  S
O423       C1249   1.280       .  A
O424       Ni431   1.920       .  S
O424       C1250   1.282       .  A
O425       Ni431   1.916       .  S
O425        C435   1.280       .  A
O426       Ni431   1.917       .  S
O426        C436   1.281       .  A
O427       Ni432   1.917       .  S
O427       C1252   1.280   1_455  A
O428       Ni432   1.918       .  S
O428       C1251   1.281   1_455  A
O429       Ni432   1.914       .  S
O429        C434   1.280   1_455  A
O430       Ni432   1.921       .  S
O430        C433   1.282       .  A
Ni431     Ni1248   2.382       .  S
Ni432     Ni1247   2.382   1_455  S
C433       O1239   1.280   1_455  A
C433        C607   1.486       .  S
C434       O1240   1.282       .  A
C434        C597   1.490       .  S
C435       O1244   1.281       .  A
C435        C564   1.490       .  S
C436       O1243   1.280       .  A
C436        C554   1.475       .  S
O437       Ni445   1.916       .  S
O438       Ni445   1.915       .  S
O439       Ni445   1.916       .  S
O439        C449   1.280       .  A
O440       Ni445   1.917       .  S
O440        C450   1.280       .  A
O441       Ni446   1.912       .  S
O442       Ni446   1.915       .  S
O443       Ni446   1.916       .  S
O443        C448   1.281       .  A
O444       Ni446   1.915       .  S
O444        C447   1.281   1_565  A
C448        C577   1.486       .  S
C449        C534   1.471       .  S
C450        C544   1.471       .  S
O451       Ni663   1.914       .  S
O451        C461   1.279       .  A
O452        C462   1.279       .  A
O453       Ni459   1.916       .  S
O455        C464   1.279       .  A
O456       Ni664   1.916   1_565  S
O456        C463   1.280   1_565  A
O457       Ni460   1.917   1_565  S
O457        C666   1.281       .  A
O458        C665   1.281       .  A
Ni459       O655   1.914   1_554  S
Ni460       O660   1.916   1_545  S
C461        O662   1.281       .  A
C461        C527   1.472       .  S
C462        O661   1.281   1_554  A
C462        C517   1.481       .  S
C464        C537   1.501       .  S
O465       Ni677   1.913       .  S
O465        C475   1.280   1_554  A
O466      Ni1289   1.919   1_455  S
O466        C476   1.281       .  A
O467       Ni473   1.920       .  S
O467       C1293   1.281       .  A
O468      Ni1493   1.918   1_455  S
O468       C1294   1.281   1_455  A
O469      Ni1290   1.916   1_554  S
O469        C478   1.280       .  A
O470       Ni678   1.914       .  S
O470        C477   1.280       .  A
O471       Ni474   1.910   1_554  S
O471        C680   1.280       .  A
O472      Ni1494   1.917       .  S
O472        C679   1.281       .  A
Ni473       O669   1.913       .  S
Ni473      O1282   1.919       .  S
Ni473      O1488   1.918       .  S
Ni473     Ni1494   2.382       .  S
Ni474      O1285   1.916   1_456  S
Ni474       O674   1.914       .  S
Ni474      O1492   1.917   1_455  S
Ni474     Ni1493   2.382   1_456  S
C475        O676   1.281       .  A
C475        C494   1.488       .  S
C476        O675   1.280       .  A
C476        C504   1.483       .  S
C477       O1283   1.281   1_455  A
C477        C557   1.492       .  S
C478       O1284   1.281       .  A
C478        C567   1.475       .  S
O479       Ni487   1.910       .  S
O479        C693   1.277   1_554  A
O480       Ni487   1.912       .  S
O480        C694   1.280       .  A
O481       Ni487   1.915       .  S
O481        C491   1.280       .  A
O482       Ni487   1.921       .  S
O482        C492   1.282   1_554  A
O483       Ni488   1.912       .  S
O483        C696   1.279       .  A
O484       Ni488   1.918       .  S
O484        C695   1.281       .  A
O485       Ni488   1.916       .  S
O485        C490   1.281       .  A
O486       Ni488   1.920       .  S
O486        C489   1.281       .  A
Ni487      Ni692   2.383   1_554  S
Ni488      Ni691   2.383       .  S
C489        O683   1.277       .  A
C489        C524   1.504       .  S
C490        O684   1.280       .  A
C490        C718   1.477       .  S
C491        O688   1.281   1_554  A
C491        C507   1.480       .  S
C492        O687   1.279       .  A
C492        C497   1.476       .  S
C493        C494   1.417   1_554  A
C493        C498   1.407       .  A
C493       Br500   1.935       .  S
C494        C699   1.419       .  A
C495        C698   1.419       .  A
C495        C496   1.409       .  A
C495       Br502   1.935       .  S
C496        C701   1.408       .  A
C496       Br501   1.933       .  S
C497        C700   1.408       .  A
C497        C498   1.407   1_556  A
C498       Br499   1.929       .  S
C503        C708   1.415       .  A
C503        C508   1.409       .  A
C503       Br510   1.933       .  S
C504        C707   1.415       .  A
C504        C505   1.414       .  A
C505        C506   1.406       .  A
C505       Br512   1.935       .  S
C506        C711   1.410       .  A
C506       Br511   1.931       .  S
C507        C710   1.410   1_554  A
C507        C508   1.412       .  A
C508       Br509   1.933       .  S
C513        C718   1.411       .  A
C513        C518   1.407       .  A
C513       Br520   1.934       .  S
C514        C694   1.477       .  S
C514        C717   1.411   1_554  A
C514        C515   1.412       .  A
C515        C516   1.407       .  A
C515       Br522   1.934       .  S
C516        C517   1.414       .  A
C516       Br521   1.934       .  S
C517        C722   1.415   1_554  A
C518        C721   1.415       .  A
C518       Br519   1.934       .  S
C523        C728   1.430   1_554  A
C523        C528   1.407       .  A
C523       Br530   1.940       .  S
C524        C727   1.430       .  A
C524        C525   1.428       .  A
C525        C526   1.410       .  A
C525       Br532   1.937       .  S
C526        C527   1.402       .  A
C526       Br531   1.934       .  S
C527        C732   1.400       .  A
C528        C731   1.400       .  A
C528       Br529   1.931       .  S
C533        C534   1.402       .  A
C533        C538   1.408       .  A
C533       Br540   1.935       .  S
C535        C536   1.409       .  A
C535       Br542   1.934       .  S
C536       Br541   1.937       .  S
C537        C538   1.428       .  A
C538       Br539   1.938       .  S
C543        C548   1.407       .  A
C543       Br550   1.934       .  S
C544        C545   1.406       .  A
C545        C546   1.409       .  A
C545       Br552   1.934       .  S
C546        C547   1.423       .  A
C546       Br551   1.935       .  S
C548       Br549   1.936       .  S
C553       C1370   1.407   1_455  A
C553        C558   1.409       .  A
C553       Br560   1.933       .  S
C554       C1369   1.407       .  A
C554        C555   1.406       .  A
C555        C556   1.408       .  A
C555       Br562   1.934       .  S
C556       C1373   1.420       .  A
C556       Br561   1.935       .  S
C557       C1372   1.420   1_455  A
C557        C558   1.420       .  A
C558       Br559   1.934       .  S
C563       C1380   1.418   1_455  A
C563        C568   1.409       .  A
C563       Br570   1.934       .  S
C564       C1379   1.418       .  A
C564        C565   1.419       .  A
C565        C566   1.409       .  A
C565       Br572   1.934       .  S
C566        C567   1.407       .  A
C566       Br571   1.933       .  S
C567       C1384   1.408       .  A
C568       C1383   1.408   1_455  A
C568       Br569   1.933       .  S
C573        C578   1.407       .  A
C573       Br580   1.934       .  S
C574        C575   1.410       .  A
C575        C576   1.409       .  A
C575       Br582   1.934       .  S
C576        C577   1.417       .  A
C576       Br581   1.934       .  S
C578       Br579   1.935       .  S
C583        C588   1.407       .  A
C583       Br590   1.934       .  S
C584        C585   1.412       .  A
C585        C586   1.408       .  A
C585       Br592   1.934       .  S
C586        C587   1.415       .  A
C586       Br591   1.934       .  S
C588       Br589   1.935       .  S
C593       C1410   1.408       .  A
C593        C598   1.409       .  A
C593       Br600   1.933       .  S
C594       C1409   1.408       .  A
C594        C595   1.408   1_655  A
C595        C596   1.409       .  A
C595       Br602   1.934       .  S
C596        C597   1.419   1_455  A
C596       Br601   1.935       .  S
C597       C1414   1.418       .  A
C598       C1413   1.418       .  A
C598       Br599   1.934       .  S
C603        C604   1.410       .  A
C603        C608   1.408       .  A
C603       Br610   1.934       .  S
C604       C1421   1.410       .  A
C605       C1420   1.410       .  A
C605        C606   1.410       .  A
C605       Br612   1.933       .  S
C606        C607   1.416       .  A
C606       Br611   1.933       .  S
C607       C1424   1.416   1_455  A
C608       C1423   1.416       .  A
C608       Br609   1.934       .  S
O613       Ni621   1.915       .  S
O613        C623   1.281       .  A
O614      Ni1029   1.914   1_565  S
O614        C624   1.281       .  A
O615       C1441   1.281       .  A
O616      Ni1437   1.915       .  S
O616       C1442   1.281       .  A
O617      Ni1030   1.919       .  S
O617        C626   1.281       .  A
O618       Ni622   1.917   1_655  S
O618        C625   1.281       .  A
O620      Ni1438   1.915   1_545  S
Ni621      O1022   1.914       .  S
Ni621      O1432   1.915       .  S
Ni621     Ni1030   2.389       .  S
Ni622      O1025   1.919   1_565  S
Ni622      O1436   1.915   1_465  S
Ni622     Ni1029   2.389   1_565  S
C623        C788   1.480       .  S
C624        C778   1.478       .  S
C625       O1431   1.281       .  A
C625        C798   1.477       .  S
C626       O1432   1.281       .  A
C626        C808   1.479       .  S
O627       Ni635   1.914       .  S
O627       C1453   1.280       .  A
O628       Ni635   1.920       .  S
O628       C1454   1.282       .  A
O629       Ni635   1.916       .  S
O629        C639   1.280       .  A
O630       Ni635   1.917       .  S
O630        C640   1.281       .  A
O631       Ni636   1.917       .  S
O631       C1456   1.280   1_455  A
O632       Ni636   1.918       .  S
O632       C1455   1.281   1_455  A
O633       Ni636   1.914       .  S
O633        C638   1.280   1_455  A
O634       Ni636   1.921       .  S
O634        C637   1.282       .  A
Ni635     Ni1452   2.382       .  S
Ni636     Ni1451   2.382   1_455  S
C637       O1443   1.280   1_455  A
C637        C811   1.486       .  S
C638       O1444   1.282       .  A
C638        C801   1.490       .  S
C639       O1448   1.281       .  A
C639        C768   1.490       .  S
C640       O1447   1.280       .  A
C640        C758   1.475       .  S
O641       Ni649   1.916       .  S
O642       Ni649   1.915       .  S
O643       Ni649   1.916       .  S
O643        C653   1.280       .  A
O644       Ni649   1.917       .  S
O644        C654   1.280       .  A
O645       Ni650   1.912       .  S
O646       Ni650   1.915       .  S
O647       Ni650   1.916       .  S
O647        C652   1.281       .  A
O648       Ni650   1.915       .  S
O648        C651   1.281   1_565  A
C652        C781   1.486       .  S
C653        C738   1.471       .  S
C654        C748   1.471       .  S
O655        C665   1.279   1_556  A
O656        C666   1.279       .  A
O657       Ni663   1.916       .  S
O659        C668   1.279       .  A
O660        C667   1.280   1_565  A
O661       Ni664   1.917   1_566  S
C665        C731   1.472       .  S
C666        C721   1.481       .  S
C668        C741   1.501       .  S
O669        C679   1.280       .  A
O670      Ni1493   1.919   1_455  S
O670        C680   1.281       .  A
O671       Ni677   1.920   1_556  S
O671       C1497   1.281       .  A
O672      Ni1289   1.918   1_455  S
O672       C1498   1.281   1_455  A
O673      Ni1494   1.916       .  S
O673        C682   1.280       .  A
O674        C681   1.280       .  A
O675       Ni678   1.910       .  S
O676      Ni1290   1.917       .  S
Ni677      O1486   1.919       .  S
Ni677      O1284   1.918       .  S
Ni677     Ni1290   2.382   1_554  S
Ni678      O1489   1.916   1_455  S
Ni678      O1288   1.917   1_455  S
Ni678     Ni1289   2.382   1_455  S
C679        C698   1.488       .  S
C680        C708   1.483       .  S
C681       O1487   1.281   1_455  A
C681        C761   1.492       .  S
C682       O1488   1.281       .  A
C682        C771   1.475       .  S
O683       Ni691   1.910       .  S
O684       Ni691   1.912       .  S
O685       Ni691   1.915       .  S
O685        C695   1.280       .  A
O686       Ni691   1.921       .  S
O686        C696   1.282       .  A
O687       Ni692   1.912       .  S
O688       Ni692   1.918       .  S
O689       Ni692   1.916       .  S
O689        C694   1.281   1_556  A
O690       Ni692   1.920       .  S
O690        C693   1.281       .  A
C693        C728   1.504       .  S
C695        C711   1.480       .  S
C696        C701   1.476       .  S
C697        C698   1.417       .  A
C697        C702   1.407       .  A
C697       Br704   1.935       .  S
C699        C700   1.409       .  A
C699       Br706   1.935       .  S
C700       Br705   1.933       .  S
C701        C702   1.407       .  A
C702       Br703   1.929       .  S
C707        C712   1.409       .  A
C707       Br714   1.933       .  S
C708        C709   1.414   1_554  A
C709        C710   1.406       .  A
C709       Br716   1.935       .  S
C710       Br715   1.931       .  S
C711        C712   1.412       .  A
C712       Br713   1.933       .  S
C717        C722   1.407       .  A
C717       Br724   1.934       .  S
C718        C719   1.412       .  A
C719        C720   1.407       .  A
C719       Br726   1.934       .  S
C720        C721   1.414       .  A
C720       Br725   1.934       .  S
C722       Br723   1.934       .  S
C727        C732   1.407       .  A
C727       Br734   1.940       .  S
C728        C729   1.428       .  A
C729        C730   1.410       .  A
C729       Br736   1.937       .  S
C730        C731   1.402   1_556  A
C730       Br735   1.934       .  S
C732       Br733   1.931       .  S
C737        C738   1.402       .  A
C737        C742   1.408       .  A
C737       Br744   1.935       .  S
C739        C740   1.409       .  A
C739       Br746   1.934       .  S
C740       Br745   1.937       .  S
C741        C742   1.428       .  A
C742       Br743   1.938       .  S
C747        C752   1.407       .  A
C747       Br754   1.934       .  S
C748        C749   1.406       .  A
C749        C750   1.409       .  A
C749       Br756   1.934       .  S
C750        C751   1.423       .  A
C750       Br755   1.935       .  S
C752       Br753   1.936       .  S
C757       C1574   1.407   1_455  A
C757        C762   1.409       .  A
C757       Br764   1.933       .  S
C758       C1573   1.407       .  A
C758        C759   1.406       .  A
C759        C760   1.408       .  A
C759       Br766   1.934       .  S
C760       C1577   1.420       .  A
C760       Br765   1.935       .  S
C761       C1576   1.420   1_455  A
C761        C762   1.420       .  A
C762       Br763   1.934       .  S
C767       C1584   1.418   1_455  A
C767        C772   1.409       .  A
C767       Br774   1.934       .  S
C768       C1583   1.418       .  A
C768        C769   1.419       .  A
C769        C770   1.409       .  A
C769       Br776   1.934       .  S
C770        C771   1.407       .  A
C770       Br775   1.933       .  S
C771       C1588   1.408       .  A
C772       C1587   1.408   1_455  A
C772       Br773   1.933       .  S
C777        C782   1.407       .  A
C777       Br784   1.934       .  S
C778        C779   1.410       .  A
C779        C780   1.409       .  A
C779       Br786   1.934       .  S
C780        C781   1.417       .  A
C780       Br785   1.934       .  S
C782       Br783   1.935       .  S
C787        C792   1.407       .  A
C787       Br794   1.934       .  S
C788        C789   1.412       .  A
C789        C790   1.408       .  A
C789       Br796   1.934       .  S
C790        C791   1.415       .  A
C790       Br795   1.934       .  S
C792       Br793   1.935       .  S
C797       C1614   1.408       .  A
C797        C802   1.409       .  A
C797       Br804   1.933       .  S
C798       C1613   1.408       .  A
C798        C799   1.408   1_655  A
C799        C800   1.409       .  A
C799       Br806   1.934       .  S
C800        C801   1.419   1_455  A
C800       Br805   1.935       .  S
C801       C1618   1.418       .  A
C802       C1617   1.418       .  A
C802       Br803   1.934       .  S
C807        C808   1.410       .  A
C807        C812   1.408       .  A
C807       Br814   1.934       .  S
C808       C1625   1.410       .  A
C809       C1624   1.410       .  A
C809        C810   1.410       .  A
C809       Br816   1.933       .  S
C810        C811   1.416       .  A
C810       Br815   1.933       .  S
C811       C1628   1.416   1_455  A
C812       C1627   1.416       .  A
C812       Br813   1.934       .  S
O817       Ni825   1.915   1_655  S
O817        C827   1.281       .  A
O818        C828   1.281       .  A
O819      Ni1233   1.917   1_655  S
O821        C830   1.281       .  A
O822       Ni826   1.917       .  S
O822        C829   1.281       .  A
O823      Ni1234   1.917       .  S
O823       C1236   1.281       .  A
O824       C1235   1.281       .  A
Ni825      O1227   1.917   1_445  S
Ni826      O1231   1.917       .  S
C827       O1232   1.281       .  A
C827        C992   1.480       .  S
C828       O1231   1.281       .  A
C828        C982   1.478       .  S
C829       C1002   1.477       .  S
C830       C1012   1.479       .  S
O831       Ni839   1.914       .  S
O832       Ni839   1.920       .  S
O833       Ni839   1.916       .  S
O833        C843   1.280       .  A
O834       Ni839   1.917       .  S
O834        C844   1.281       .  A
O835       Ni840   1.917       .  S
O836       Ni840   1.918       .  S
O837       Ni840   1.914       .  S
O837        C842   1.280       .  A
O838       Ni840   1.921       .  S
O838        C841   1.282       .  A
C841       C1015   1.486       .  S
C842       C1005   1.490       .  S
C843        C972   1.490       .  S
C844        C962   1.475       .  S
O845       Ni853   1.916       .  S
O845       C1263   1.281       .  A
O846       Ni853   1.915       .  S
O846       C1264   1.281   1_545  A
O847       Ni853   1.916       .  S
O847        C857   1.280   1_545  A
O848       Ni853   1.917       .  S
O848        C858   1.280       .  A
O849       Ni854   1.912       .  S
O849       C1266   1.280       .  A
O850       Ni854   1.915       .  S
O850       C1265   1.280       .  A
O851       Ni854   1.916       .  S
O851        C856   1.281       .  A
O852       Ni854   1.915       .  S
O852        C855   1.281       .  A
Ni853     Ni1262   2.389   1_545  S
Ni854     Ni1261   2.389       .  S
C855       O1253   1.281       .  A
C855       C1403   1.483       .  S
C856       O1254   1.281       .  A
C856        C985   1.486       .  S
C857       O1258   1.280       .  A
C857        C942   1.471       .  S
C858       O1257   1.280   1_545  A
C858        C952   1.471       .  S
O859      Ni1071   1.914       .  S
O859        C869   1.279       .  A
O860      Ni1275   1.911       .  S
O860        C870   1.279       .  A
O861       Ni867   1.916       .  S
O861       C1279   1.282       .  A
O862      Ni1479   1.918       .  S
O862       C1280   1.281       .  A
O863      Ni1276   1.913       .  S
O863        C872   1.279   1_545  A
O864      Ni1072   1.916       .  S
O864        C871   1.280       .  A
O865       Ni868   1.917       .  S
O865       C1074   1.281       .  A
O866      Ni1480   1.918       .  S
O866       C1073   1.281       .  A
Ni867      O1063   1.914   1_554  S
Ni867      O1268   1.911   1_545  S
Ni867      O1474   1.918   1_544  S
Ni867     Ni1480   2.378       .  S
Ni868      O1271   1.913       .  S
Ni868      O1068   1.916       .  S
Ni868      O1478   1.919       .  S
Ni868     Ni1479   2.378       .  S
C869       O1070   1.281       .  A
C869        C935   1.472       .  S
C870       O1069   1.281   1_554  A
C870        C925   1.481       .  S
C871       O1269   1.282       .  A
C871       C1363   1.493       .  S
C872       O1270   1.281       .  A
C872        C945   1.501       .  S
O873      Ni1085   1.913       .  S
O873        C883   1.280   1_554  A
O874        C884   1.281       .  A
O875       Ni881   1.920       .  S
O877        C886   1.280       .  A
O878      Ni1086   1.914       .  S
O878        C885   1.280       .  A
O879       Ni882   1.910   1_554  S
O879       C1088   1.280       .  A
O880       C1087   1.281       .  A
Ni881      O1077   1.913       .  S
Ni882      O1082   1.914       .  S
C883       O1084   1.281       .  A
C883        C902   1.488       .  S
C884       O1083   1.280       .  A
C884        C912   1.483       .  S
C885        C965   1.492       .  S
C886        C975   1.475       .  S
O887       Ni895   1.910       .  S
O887       C1101   1.277   1_554  A
O888       Ni895   1.912       .  S
O888       C1102   1.280       .  A
O889       Ni895   1.915       .  S
O889        C899   1.280       .  A
O890       Ni895   1.921       .  S
O890        C900   1.282   1_554  A
O891       Ni896   1.912       .  S
O891       C1104   1.279       .  A
O892       Ni896   1.918       .  S
O892       C1103   1.281       .  A
O893       Ni896   1.916       .  S
O893        C898   1.281       .  A
O894       Ni896   1.920       .  S
O894        C897   1.281       .  A
Ni895     Ni1100   2.383   1_554  S
Ni896     Ni1099   2.383       .  S
C897       O1091   1.277       .  A
C897        C932   1.504       .  S
C898       O1092   1.280       .  A
C898       C1126   1.477       .  S
C899       O1096   1.281   1_554  A
C899        C915   1.480       .  S
C900       O1095   1.279       .  A
C900        C905   1.476       .  S
C901        C902   1.417   1_554  A
C901        C906   1.407       .  A
C901       Br908   1.935       .  S
C902       C1107   1.419       .  A
C903       C1106   1.419       .  A
C903        C904   1.409       .  A
C903       Br910   1.935       .  S
C904       C1109   1.408       .  A
C904       Br909   1.933       .  S
C905       C1108   1.408       .  A
C905        C906   1.407   1_556  A
C906       Br907   1.929       .  S
C911       C1116   1.415       .  A
C911        C916   1.409       .  A
C911       Br918   1.933       .  S
C912       C1115   1.415       .  A
C912        C913   1.414       .  A
C913        C914   1.406       .  A
C913       Br920   1.935       .  S
C914       C1119   1.410       .  A
C914       Br919   1.931       .  S
C915       C1118   1.410   1_554  A
C915        C916   1.412       .  A
C916       Br917   1.933       .  S
C921       C1126   1.411       .  A
C921        C926   1.407       .  A
C921       Br928   1.934       .  S
C922       C1102   1.477       .  S
C922       C1125   1.411   1_554  A
C922        C923   1.412       .  A
C923        C924   1.407       .  A
C923       Br930   1.934       .  S
C924        C925   1.414       .  A
C924       Br929   1.934       .  S
C925       C1130   1.415   1_554  A
C926       C1129   1.415       .  A
C926       Br927   1.934       .  S
C931       C1136   1.430   1_554  A
C931        C936   1.407       .  A
C931       Br938   1.940       .  S
C932       C1135   1.430       .  A
C932        C933   1.428       .  A
C933        C934   1.410       .  A
C933       Br940   1.937       .  S
C934        C935   1.402       .  A
C934       Br939   1.934       .  S
C935       C1140   1.400       .  A
C936       C1139   1.400       .  A
C936       Br937   1.931       .  S
C941        C942   1.402       .  A
C941        C946   1.408       .  A
C941       Br948   1.935       .  S
C942       C1351   1.403   1_565  A
C943       C1350   1.403       .  A
C943        C944   1.409       .  A
C943       Br950   1.934       .  S
C944       C1353   1.426       .  A
C944       Br949   1.937       .  S
C945       C1352   1.426   1_565  A
C945        C946   1.428       .  A
C946       Br947   1.938       .  S
C951       C1360   1.405       .  A
C951        C956   1.407       .  A
C951       Br958   1.934       .  S
C952       C1359   1.405   1_545  A
C952        C953   1.406       .  A
C953        C954   1.409       .  A
C953       Br960   1.934       .  S
C954        C955   1.423   1_545  A
C954       Br959   1.935       .  S
C955       C1279   1.493   1_565  S
C955       C1364   1.421       .  A
C956       C1363   1.421       .  A
C956       Br957   1.936       .  S
C961        C966   1.409       .  A
C961       Br968   1.933       .  S
C962        C963   1.406       .  A
C963        C964   1.408       .  A
C963       Br970   1.934       .  S
C964       Br969   1.935       .  S
C965        C966   1.420       .  A
C966       Br967   1.934       .  S
C971        C976   1.409       .  A
C971       Br978   1.934       .  S
C972        C973   1.419       .  A
C973        C974   1.409       .  A
C973       Br980   1.934       .  S
C974        C975   1.407       .  A
C974       Br979   1.933       .  S
C976       Br977   1.933       .  S
C981       C1390   1.410   1_545  A
C981        C986   1.407       .  A
C981       Br988   1.934       .  S
C982       C1389   1.410       .  A
C982        C983   1.410       .  A
C983        C984   1.409       .  A
C983       Br990   1.934       .  S
C984        C985   1.417       .  A
C984       Br989   1.934       .  S
C985       C1394   1.416       .  A
C986       C1393   1.416   1_545  A
C986       Br987   1.935       .  S
C991       C1400   1.411       .  A
C991        C996   1.407       .  A
C991       Br998   1.934       .  S
C992       C1399   1.411   1_545  A
C992        C993   1.412       .  A
C993        C994   1.408       .  A
C993      Br1000   1.934       .  S
C994        C995   1.415       .  A
C994       Br999   1.934       .  S
C995       C1263   1.483       .  S
C995       C1404   1.415   1_545  A
C996       C1403   1.415       .  A
C996       Br997   1.935       .  S
C1001      C1006   1.409       .  A
C1001     Br1008   1.933       .  S
C1002      C1003   1.408       .  A
C1003      C1004   1.409       .  A
C1003     Br1010   1.934       .  S
C1004      C1005   1.419       .  A
C1004     Br1009   1.935       .  S
C1006     Br1007   1.934       .  S
C1011      C1012   1.410   1_655  A
C1011      C1016   1.408       .  A
C1011     Br1018   1.934       .  S
C1013      C1014   1.410       .  A
C1013     Br1020   1.933       .  S
C1014      C1015   1.416       .  A
C1014     Br1019   1.933       .  S
C1016     Br1017   1.934       .  S
O1021     Ni1029   1.915   1_655  S
O1021      C1031   1.281       .  A
O1022      C1032   1.281       .  A
O1023     Ni1437   1.917   1_655  S
O1025      C1034   1.281       .  A
O1026     Ni1030   1.917       .  S
O1026      C1033   1.281       .  A
O1027     Ni1438   1.917       .  S
O1027      C1440   1.281       .  A
O1028      C1439   1.281       .  A
Ni1029     O1431   1.917   1_445  S
Ni1030     O1435   1.917       .  S
C1031      O1436   1.281       .  A
C1031      C1196   1.480       .  S
C1032      O1435   1.281       .  A
C1032      C1186   1.478       .  S
C1033      C1206   1.477       .  S
C1034      C1216   1.479       .  S
O1035     Ni1043   1.914       .  S
O1036     Ni1043   1.920       .  S
O1037     Ni1043   1.916       .  S
O1037      C1047   1.280       .  A
O1038     Ni1043   1.917       .  S
O1038      C1048   1.281       .  A
O1039     Ni1044   1.917       .  S
O1040     Ni1044   1.918       .  S
O1041     Ni1044   1.914       .  S
O1041      C1046   1.280       .  A
O1042     Ni1044   1.921       .  S
O1042      C1045   1.282       .  A
C1045      C1219   1.486       .  S
C1046      C1209   1.490       .  S
C1047      C1176   1.490       .  S
C1048      C1166   1.475       .  S
O1049     Ni1057   1.916       .  S
O1049      C1467   1.281       .  A
O1050     Ni1057   1.915       .  S
O1050      C1468   1.281   1_545  A
O1051     Ni1057   1.916       .  S
O1051      C1061   1.280   1_545  A
O1052     Ni1057   1.917       .  S
O1052      C1062   1.280       .  A
O1053     Ni1058   1.912       .  S
O1053      C1470   1.280       .  A
O1054     Ni1058   1.915       .  S
O1054      C1469   1.280       .  A
O1055     Ni1058   1.916       .  S
O1055      C1060   1.281       .  A
O1056     Ni1058   1.915       .  S
O1056      C1059   1.281       .  A
Ni1057    Ni1466   2.389   1_545  S
Ni1058    Ni1465   2.389       .  S
C1059      O1457   1.281       .  A
C1059      C1607   1.483       .  S
C1060      O1458   1.281       .  A
C1060      C1189   1.486       .  S
C1061      O1462   1.280       .  A
C1061      C1146   1.471       .  S
C1062      O1461   1.280   1_545  A
C1062      C1156   1.471       .  S
O1063      C1073   1.279   1_556  A
O1064     Ni1479   1.911       .  S
O1064      C1074   1.279       .  A
O1065     Ni1071   1.916       .  S
O1065      C1483   1.282       .  A
O1066     Ni1275   1.918   1_556  S
O1066      C1484   1.281       .  A
O1067     Ni1480   1.913   1_556  S
O1067      C1076   1.279   1_545  A
O1068      C1075   1.280       .  A
O1069     Ni1072   1.917   1_556  S
O1070     Ni1276   1.919       .  S
Ni1071     O1472   1.911   1_545  S
Ni1071     O1270   1.918   1_545  S
Ni1071    Ni1276   2.378       .  S
Ni1072     O1475   1.913   1_554  S
Ni1072     O1274   1.918       .  S
Ni1072    Ni1275   2.378       .  S
C1073      C1139   1.472       .  S
C1074      C1129   1.481       .  S
C1075      O1473   1.282       .  A
C1075      C1567   1.493       .  S
C1076      O1474   1.281       .  A
C1076      C1149   1.501       .  S
O1077      C1087   1.280       .  A
O1078      C1088   1.281       .  A
O1079     Ni1085   1.920   1_556  S
O1081      C1090   1.280       .  A
O1082      C1089   1.280       .  A
O1083     Ni1086   1.910       .  S
C1087      C1106   1.488       .  S
C1088      C1116   1.483       .  S
C1089      C1169   1.492       .  S
C1090      C1179   1.475       .  S
O1091     Ni1099   1.910       .  S
O1092     Ni1099   1.912       .  S
O1093     Ni1099   1.915       .  S
O1093      C1103   1.280       .  A
O1094     Ni1099   1.921       .  S
O1094      C1104   1.282       .  A
O1095     Ni1100   1.912       .  S
O1096     Ni1100   1.918       .  S
O1097     Ni1100   1.916       .  S
O1097      C1102   1.281   1_556  A
O1098     Ni1100   1.920       .  S
O1098      C1101   1.281       .  A
C1101      C1136   1.504       .  S
C1103      C1119   1.480       .  S
C1104      C1109   1.476       .  S
C1105      C1106   1.417       .  A
C1105      C1110   1.407       .  A
C1105     Br1112   1.935       .  S
C1107      C1108   1.409       .  A
C1107     Br1114   1.935       .  S
C1108     Br1113   1.933       .  S
C1109      C1110   1.407       .  A
C1110     Br1111   1.929       .  S
C1115      C1120   1.409       .  A
C1115     Br1122   1.933       .  S
C1116      C1117   1.414   1_554  A
C1117      C1118   1.406       .  A
C1117     Br1124   1.935       .  S
C1118     Br1123   1.931       .  S
C1119      C1120   1.412       .  A
C1120     Br1121   1.933       .  S
C1125      C1130   1.407       .  A
C1125     Br1132   1.934       .  S
C1126      C1127   1.412       .  A
C1127      C1128   1.407       .  A
C1127     Br1134   1.934       .  S
C1128      C1129   1.414       .  A
C1128     Br1133   1.934       .  S
C1130     Br1131   1.934       .  S
C1135      C1140   1.407       .  A
C1135     Br1142   1.940       .  S
C1136      C1137   1.428       .  A
C1137      C1138   1.410       .  A
C1137     Br1144   1.937       .  S
C1138      C1139   1.402   1_556  A
C1138     Br1143   1.934       .  S
C1140     Br1141   1.931       .  S
C1145      C1146   1.402       .  A
C1145      C1150   1.408       .  A
C1145     Br1152   1.935       .  S
C1146      C1555   1.403   1_565  A
C1147      C1554   1.403       .  A
C1147      C1148   1.409       .  A
C1147     Br1154   1.934       .  S
C1148      C1557   1.426       .  A
C1148     Br1153   1.937       .  S
C1149      C1556   1.426   1_565  A
C1149      C1150   1.428       .  A
C1150     Br1151   1.938       .  S
C1155      C1564   1.405       .  A
C1155      C1160   1.407       .  A
C1155     Br1162   1.934       .  S
C1156      C1563   1.405   1_545  A
C1156      C1157   1.406       .  A
C1157      C1158   1.409       .  A
C1157     Br1164   1.934       .  S
C1158      C1159   1.423   1_545  A
C1158     Br1163   1.935       .  S
C1159      C1483   1.493   1_565  S
C1159      C1568   1.421       .  A
C1160      C1567   1.421       .  A
C1160     Br1161   1.936       .  S
C1165      C1170   1.409       .  A
C1165     Br1172   1.933       .  S
C1166      C1167   1.406       .  A
C1167      C1168   1.408       .  A
C1167     Br1174   1.934       .  S
C1168     Br1173   1.935       .  S
C1169      C1170   1.420       .  A
C1170     Br1171   1.934       .  S
C1175      C1180   1.409       .  A
C1175     Br1182   1.934       .  S
C1176      C1177   1.419       .  A
C1177      C1178   1.409       .  A
C1177     Br1184   1.934       .  S
C1178      C1179   1.407       .  A
C1178     Br1183   1.933       .  S
C1180     Br1181   1.933       .  S
C1185      C1594   1.410   1_545  A
C1185      C1190   1.407       .  A
C1185     Br1192   1.934       .  S
C1186      C1593   1.410       .  A
C1186      C1187   1.410       .  A
C1187      C1188   1.409       .  A
C1187     Br1194   1.934       .  S
C1188      C1189   1.417       .  A
C1188     Br1193   1.934       .  S
C1189      C1598   1.416       .  A
C1190      C1597   1.416   1_545  A
C1190     Br1191   1.935       .  S
C1195      C1604   1.411       .  A
C1195      C1200   1.407       .  A
C1195     Br1202   1.934       .  S
C1196      C1603   1.411   1_545  A
C1196      C1197   1.412       .  A
C1197      C1198   1.408       .  A
C1197     Br1204   1.934       .  S
C1198      C1199   1.415       .  A
C1198     Br1203   1.934       .  S
C1199      C1467   1.483       .  S
C1199      C1608   1.415   1_545  A
C1200      C1607   1.415       .  A
C1200     Br1201   1.935       .  S
C1205      C1210   1.409       .  A
C1205     Br1212   1.933       .  S
C1206      C1207   1.408       .  A
C1207      C1208   1.409       .  A
C1207     Br1214   1.934       .  S
C1208      C1209   1.419       .  A
C1208     Br1213   1.935       .  S
C1210     Br1211   1.934       .  S
C1215      C1216   1.410   1_655  A
C1215      C1220   1.408       .  A
C1215     Br1222   1.934       .  S
C1217      C1218   1.410       .  A
C1217     Br1224   1.933       .  S
C1218      C1219   1.416       .  A
C1218     Br1223   1.933       .  S
C1220     Br1221   1.934       .  S
O1225     Ni1233   1.915   1_655  S
O1225      C1235   1.281       .  A
O1226      C1236   1.281       .  A
O1229      C1238   1.281       .  A
O1230     Ni1234   1.917       .  S
O1230      C1237   1.281       .  A
C1235      C1400   1.480       .  S
C1236      C1390   1.478       .  S
C1237      C1410   1.477       .  S
C1238      C1420   1.479       .  S
O1239     Ni1247   1.914       .  S
O1240     Ni1247   1.920       .  S
O1241     Ni1247   1.916       .  S
O1241      C1251   1.280       .  A
O1242     Ni1247   1.917       .  S
O1242      C1252   1.281       .  A
O1243     Ni1248   1.917       .  S
O1244     Ni1248   1.918       .  S
O1245     Ni1248   1.914       .  S
O1245      C1250   1.280       .  A
O1246     Ni1248   1.921       .  S
O1246      C1249   1.282       .  A
C1249      C1423   1.486       .  S
C1250      C1413   1.490       .  S
C1251      C1380   1.490       .  S
C1252      C1370   1.475       .  S
O1253     Ni1261   1.916       .  S
O1254     Ni1261   1.915       .  S
O1255     Ni1261   1.916       .  S
O1255      C1265   1.280       .  A
O1256     Ni1261   1.917       .  S
O1256      C1266   1.280       .  A
O1257     Ni1262   1.912       .  S
O1258     Ni1262   1.915       .  S
O1259     Ni1262   1.916       .  S
O1259      C1264   1.281       .  A
O1260     Ni1262   1.915       .  S
O1260      C1263   1.281   1_565  A
C1264      C1393   1.486       .  S
C1265      C1350   1.471       .  S
C1266      C1360   1.471       .  S
O1267     Ni1479   1.914       .  S
O1267      C1277   1.279       .  A
O1268      C1278   1.279       .  A
O1269     Ni1275   1.916       .  S
O1271      C1280   1.279       .  A
O1272     Ni1480   1.916   1_565  S
O1272      C1279   1.280   1_565  A
O1273     Ni1276   1.917   1_565  S
O1273      C1482   1.281       .  A
O1274      C1481   1.281       .  A
Ni1275     O1471   1.914   1_554  S
Ni1276     O1476   1.916   1_545  S
C1277      O1478   1.281       .  A
C1277      C1343   1.472       .  S
C1278      O1477   1.281   1_554  A
C1278      C1333   1.481       .  S
C1280      C1353   1.501       .  S
O1281     Ni1493   1.913       .  S
O1281      C1291   1.280   1_554  A
O1282      C1292   1.281       .  A
O1283     Ni1289   1.920       .  S
O1285      C1294   1.280       .  A
O1286     Ni1494   1.914       .  S
O1286      C1293   1.280       .  A
O1287     Ni1290   1.910   1_554  S
O1287      C1496   1.280       .  A
O1288      C1495   1.281       .  A
Ni1289     O1485   1.913       .  S
Ni1290     O1490   1.914       .  S
C1291      O1492   1.281       .  A
C1291      C1310   1.488       .  S
C1292      O1491   1.280       .  A
C1292      C1320   1.483       .  S
C1293      C1373   1.492       .  S
C1294      C1383   1.475       .  S
O1295     Ni1303   1.910       .  S
O1295      C1509   1.277   1_554  A
O1296     Ni1303   1.912       .  S
O1296      C1510   1.280       .  A
O1297     Ni1303   1.915       .  S
O1297      C1307   1.280       .  A
O1298     Ni1303   1.921       .  S
O1298      C1308   1.282   1_554  A
O1299     Ni1304   1.912       .  S
O1299      C1512   1.279       .  A
O1300     Ni1304   1.918       .  S
O1300      C1511   1.281       .  A
O1301     Ni1304   1.916       .  S
O1301      C1306   1.281       .  A
O1302     Ni1304   1.920       .  S
O1302      C1305   1.281       .  A
Ni1303    Ni1508   2.383   1_554  S
Ni1304    Ni1507   2.383       .  S
C1305      O1499   1.277       .  A
C1305      C1340   1.504       .  S
C1306      O1500   1.280       .  A
C1306      C1534   1.477       .  S
C1307      O1504   1.281   1_554  A
C1307      C1323   1.480       .  S
C1308      O1503   1.279       .  A
C1308      C1313   1.476       .  S
C1309      C1310   1.417   1_554  A
C1309      C1314   1.407       .  A
C1309     Br1316   1.935       .  S
C1310      C1515   1.419       .  A
C1311      C1514   1.419       .  A
C1311      C1312   1.409       .  A
C1311     Br1318   1.935       .  S
C1312      C1517   1.408       .  A
C1312     Br1317   1.933       .  S
C1313      C1516   1.408       .  A
C1313      C1314   1.407   1_556  A
C1314     Br1315   1.929       .  S
C1319      C1524   1.415       .  A
C1319      C1324   1.409       .  A
C1319     Br1326   1.933       .  S
C1320      C1523   1.415       .  A
C1320      C1321   1.414       .  A
C1321      C1322   1.406       .  A
C1321     Br1328   1.935       .  S
C1322      C1527   1.410       .  A
C1322     Br1327   1.931       .  S
C1323      C1526   1.410   1_554  A
C1323      C1324   1.412       .  A
C1324     Br1325   1.933       .  S
C1329      C1534   1.411       .  A
C1329      C1334   1.407       .  A
C1329     Br1336   1.934       .  S
C1330      C1510   1.477       .  S
C1330      C1533   1.411   1_554  A
C1330      C1331   1.412       .  A
C1331      C1332   1.407       .  A
C1331     Br1338   1.934       .  S
C1332      C1333   1.414       .  A
C1332     Br1337   1.934       .  S
C1333      C1538   1.415   1_554  A
C1334      C1537   1.415       .  A
C1334     Br1335   1.934       .  S
C1339      C1544   1.430   1_554  A
C1339      C1344   1.407       .  A
C1339     Br1346   1.940       .  S
C1340      C1543   1.430       .  A
C1340      C1341   1.428       .  A
C1341      C1342   1.410       .  A
C1341     Br1348   1.937       .  S
C1342      C1343   1.402       .  A
C1342     Br1347   1.934       .  S
C1343      C1548   1.400       .  A
C1344      C1547   1.400       .  A
C1344     Br1345   1.931       .  S
C1349      C1350   1.402       .  A
C1349      C1354   1.408       .  A
C1349     Br1356   1.935       .  S
C1351      C1352   1.409       .  A
C1351     Br1358   1.934       .  S
C1352     Br1357   1.937       .  S
C1353      C1354   1.428       .  A
C1354     Br1355   1.938       .  S
C1359      C1364   1.407       .  A
C1359     Br1366   1.934       .  S
C1360      C1361   1.406       .  A
C1361      C1362   1.409       .  A
C1361     Br1368   1.934       .  S
C1362      C1363   1.423       .  A
C1362     Br1367   1.935       .  S
C1364     Br1365   1.936       .  S
C1369      C1374   1.409       .  A
C1369     Br1376   1.933       .  S
C1370      C1371   1.406       .  A
C1371      C1372   1.408       .  A
C1371     Br1378   1.934       .  S
C1372     Br1377   1.935       .  S
C1373      C1374   1.420       .  A
C1374     Br1375   1.934       .  S
C1379      C1384   1.409       .  A
C1379     Br1386   1.934       .  S
C1380      C1381   1.419       .  A
C1381      C1382   1.409       .  A
C1381     Br1388   1.934       .  S
C1382      C1383   1.407       .  A
C1382     Br1387   1.933       .  S
C1384     Br1385   1.933       .  S
C1389      C1394   1.407       .  A
C1389     Br1396   1.934       .  S
C1390      C1391   1.410       .  A
C1391      C1392   1.409       .  A
C1391     Br1398   1.934       .  S
C1392      C1393   1.417       .  A
C1392     Br1397   1.934       .  S
C1394     Br1395   1.935       .  S
C1399      C1404   1.407       .  A
C1399     Br1406   1.934       .  S
C1400      C1401   1.412       .  A
C1401      C1402   1.408       .  A
C1401     Br1408   1.934       .  S
C1402      C1403   1.415       .  A
C1402     Br1407   1.934       .  S
C1404     Br1405   1.935       .  S
C1409      C1414   1.409       .  A
C1409     Br1416   1.933       .  S
C1410      C1411   1.408       .  A
C1411      C1412   1.409       .  A
C1411     Br1418   1.934       .  S
C1412      C1413   1.419       .  A
C1412     Br1417   1.935       .  S
C1414     Br1415   1.934       .  S
C1419      C1420   1.410   1_655  A
C1419      C1424   1.408       .  A
C1419     Br1426   1.934       .  S
C1421      C1422   1.410       .  A
C1421     Br1428   1.933       .  S
C1422      C1423   1.416       .  A
C1422     Br1427   1.933       .  S
C1424     Br1425   1.934       .  S
O1429     Ni1437   1.915   1_655  S
O1429      C1439   1.281       .  A
O1430      C1440   1.281       .  A
O1433      C1442   1.281       .  A
O1434     Ni1438   1.917       .  S
O1434      C1441   1.281       .  A
C1439      C1604   1.480       .  S
C1440      C1594   1.478       .  S
C1441      C1614   1.477       .  S
C1442      C1624   1.479       .  S
O1443     Ni1451   1.914       .  S
O1444     Ni1451   1.920       .  S
O1445     Ni1451   1.916       .  S
O1445      C1455   1.280       .  A
O1446     Ni1451   1.917       .  S
O1446      C1456   1.281       .  A
O1447     Ni1452   1.917       .  S
O1448     Ni1452   1.918       .  S
O1449     Ni1452   1.914       .  S
O1449      C1454   1.280       .  A
O1450     Ni1452   1.921       .  S
O1450      C1453   1.282       .  A
C1453      C1627   1.486       .  S
C1454      C1617   1.490       .  S
C1455      C1584   1.490       .  S
C1456      C1574   1.475       .  S
O1457     Ni1465   1.916       .  S
O1458     Ni1465   1.915       .  S
O1459     Ni1465   1.916       .  S
O1459      C1469   1.280       .  A
O1460     Ni1465   1.917       .  S
O1460      C1470   1.280       .  A
O1461     Ni1466   1.912       .  S
O1462     Ni1466   1.915       .  S
O1463     Ni1466   1.916       .  S
O1463      C1468   1.281       .  A
O1464     Ni1466   1.915       .  S
O1464      C1467   1.281   1_565  A
C1468      C1597   1.486       .  S
C1469      C1554   1.471       .  S
C1470      C1564   1.471       .  S
O1471      C1481   1.279   1_556  A
O1472      C1482   1.279       .  A
O1473     Ni1479   1.916       .  S
O1475      C1484   1.279       .  A
O1476      C1483   1.280   1_565  A
O1477     Ni1480   1.917   1_566  S
C1481      C1547   1.472       .  S
C1482      C1537   1.481       .  S
C1484      C1557   1.501       .  S
O1485      C1495   1.280       .  A
O1486      C1496   1.281       .  A
O1487     Ni1493   1.920   1_556  S
O1489      C1498   1.280       .  A
O1490      C1497   1.280       .  A
O1491     Ni1494   1.910       .  S
C1495      C1514   1.488       .  S
C1496      C1524   1.483       .  S
C1497      C1577   1.492       .  S
C1498      C1587   1.475       .  S
O1499     Ni1507   1.910       .  S
O1500     Ni1507   1.912       .  S
O1501     Ni1507   1.915       .  S
O1501      C1511   1.280       .  A
O1502     Ni1507   1.921       .  S
O1502      C1512   1.282       .  A
O1503     Ni1508   1.912       .  S
O1504     Ni1508   1.918       .  S
O1505     Ni1508   1.916       .  S
O1505      C1510   1.281   1_556  A
O1506     Ni1508   1.920       .  S
O1506      C1509   1.281       .  A
C1509      C1544   1.504       .  S
C1511      C1527   1.480       .  S
C1512      C1517   1.476       .  S
C1513      C1514   1.417       .  A
C1513      C1518   1.407       .  A
C1513     Br1520   1.935       .  S
C1515      C1516   1.409       .  A
C1515     Br1522   1.935       .  S
C1516     Br1521   1.933       .  S
C1517      C1518   1.407       .  A
C1518     Br1519   1.929       .  S
C1523      C1528   1.409       .  A
C1523     Br1530   1.933       .  S
C1524      C1525   1.414   1_554  A
C1525      C1526   1.406       .  A
C1525     Br1532   1.935       .  S
C1526     Br1531   1.931       .  S
C1527      C1528   1.412       .  A
C1528     Br1529   1.933       .  S
C1533      C1538   1.407       .  A
C1533     Br1540   1.934       .  S
C1534      C1535   1.412       .  A
C1535      C1536   1.407       .  A
C1535     Br1542   1.934       .  S
C1536      C1537   1.414       .  A
C1536     Br1541   1.934       .  S
C1538     Br1539   1.934       .  S
C1543      C1548   1.407       .  A
C1543     Br1550   1.940       .  S
C1544      C1545   1.428       .  A
C1545      C1546   1.410       .  A
C1545     Br1552   1.937       .  S
C1546      C1547   1.402   1_556  A
C1546     Br1551   1.934       .  S
C1548     Br1549   1.931       .  S
C1553      C1554   1.402       .  A
C1553      C1558   1.408       .  A
C1553     Br1560   1.935       .  S
C1555      C1556   1.409       .  A
C1555     Br1562   1.934       .  S
C1556     Br1561   1.937       .  S
C1557      C1558   1.428       .  A
C1558     Br1559   1.938       .  S
C1563      C1568   1.407       .  A
C1563     Br1570   1.934       .  S
C1564      C1565   1.406       .  A
C1565      C1566   1.409       .  A
C1565     Br1572   1.934       .  S
C1566      C1567   1.423       .  A
C1566     Br1571   1.935       .  S
C1568     Br1569   1.936       .  S
C1573      C1578   1.409       .  A
C1573     Br1580   1.933       .  S
C1574      C1575   1.406       .  A
C1575      C1576   1.408       .  A
C1575     Br1582   1.934       .  S
C1576     Br1581   1.935       .  S
C1577      C1578   1.420       .  A
C1578     Br1579   1.934       .  S
C1583      C1588   1.409       .  A
C1583     Br1590   1.934       .  S
C1584      C1585   1.419       .  A
C1585      C1586   1.409       .  A
C1585     Br1592   1.934       .  S
C1586      C1587   1.407       .  A
C1586     Br1591   1.933       .  S
C1588     Br1589   1.933       .  S
C1593      C1598   1.407       .  A
C1593     Br1600   1.934       .  S
C1594      C1595   1.410       .  A
C1595      C1596   1.409       .  A
C1595     Br1602   1.934       .  S
C1596      C1597   1.417       .  A
C1596     Br1601   1.934       .  S
C1598     Br1599   1.935       .  S
C1603      C1608   1.407       .  A
C1603     Br1610   1.934       .  S
C1604      C1605   1.412       .  A
C1605      C1606   1.408       .  A
C1605     Br1612   1.934       .  S
C1606      C1607   1.415       .  A
C1606     Br1611   1.934       .  S
C1608     Br1609   1.935       .  S
C1613      C1618   1.409       .  A
C1613     Br1620   1.933       .  S
C1614      C1615   1.408       .  A
C1615      C1616   1.409       .  A
C1615     Br1622   1.934       .  S
C1616      C1617   1.419       .  A
C1616     Br1621   1.935       .  S
C1618     Br1619   1.934       .  S
C1623      C1624   1.410   1_655  A
C1623      C1628   1.408       .  A
C1623     Br1630   1.934       .  S
C1625      C1626   1.410       .  A
C1625     Br1632   1.933       .  S
C1626      C1627   1.416       .  A
C1626     Br1631   1.933       .  S
C1628     Br1629   1.934       .  S
