geometry optimzed in LAMMPS
_audit_creation_date              2020-12-01 
_audit_creation_method            'lammps2cif' 
_symmetry_space_group_name_H-M    'P1' 
_symmetry_Int_Tables_number       1 
_symmetry_cell_setting            triclinic 
loop_ 
_symmetry_equiv_pos_as_xyz 
  x,y,z 
_cell_length_a                    39.05344968 
_cell_length_b                    36.246979886277195 
_cell_length_c                    34.0499576146653 
_cell_angle_alpha                 90.00019656821118 
_cell_angle_beta                  89.997422073732 
_cell_angle_gamma                 90.00438754684917 
loop_ 
_atom_site_label 
_atom_site_type_symbol 
_atom_site_fract_x 
_atom_site_fract_y 
_atom_site_fract_z 
_atom_site_charge 
C1          C  0.17498357  0.42398776  0.30504653     0.79000
N2          N  0.20664288  0.43281479  0.31949741    -0.79300
C3          C  0.22512980  0.46020992  0.30238231     0.81400
N4          N  0.21123688  0.47836413  0.27156695    -0.79300
C5          C  0.18196808  0.46726892  0.25405408     0.81500
N6          N  0.16382758  0.43941958  0.27070144    -0.81000
C7          C  0.31324732  0.42416284  0.30652176     0.79000
N8          N  0.28132308  0.43282232  0.32029901    -0.79300
C9          C  0.26312912  0.46035062  0.30298727     0.81400
N10         N  0.27761131  0.47885816  0.27276011    -0.79300
C11         C  0.30716652  0.46789254  0.25579484     0.81500
N12         N  0.32498598  0.43989931  0.27259459    -0.81000
C13         C  0.31442214  0.01699549  0.16205199     0.79000
N14         N  0.32557951  0.50158623  0.19641037    -0.79300
C15         C  0.30744028  0.47374095  0.21307240     0.81400
N16         N  0.27817495  0.46263226  0.19556406    -0.79300
C17         C  0.26428282  0.48076663  0.16473615     0.81500
N18         N  0.28276667  0.00815284  0.14760526    -0.81000
C19         C  0.17617331  0.01681967  0.16057780     0.79000
N20         N  0.20809332  0.00814555  0.14680287    -0.79300
C21         C  0.22628437  0.48062579  0.16413079     0.81400
N22         N  0.21180268  0.46213765  0.19437121    -0.79300
C23         C  0.18225034  0.47311804  0.21133123     0.81500
N24         N  0.16443336  0.50110641  0.19451675    -0.81000
C25         C  0.17617129  0.17423585  0.16043615     0.79000
N26         N  0.16442207  0.19001069  0.19433609    -0.79300
C27         C  0.18225076  0.21800647  0.21112410     0.81400
N28         N  0.21182641  0.22893667  0.19417094    -0.79300
C29         C  0.22631408  0.21038839  0.16397447     0.81500
N30         N  0.20810822  0.18286072  0.14667567    -0.81000
C31         C  0.31442691  0.17392677  0.16197192     0.79000
N32         N  0.32557507  0.18932907  0.19633829    -0.79300
C33         C  0.30744846  0.21718521  0.21298935     0.81400
N34         N  0.27820159  0.22831616  0.19546177    -0.79300
C35         C  0.26431226  0.21019703  0.16462146     0.81500
N36         N  0.28278366  0.18279321  0.14750178    -0.81000
C37         C  0.17498647  0.26707351  0.30490340     0.79000
N38         N  0.20662925  0.25819807  0.31936662    -0.79300
C39         C  0.22510221  0.23081107  0.30222377     0.81400
N40         N  0.21121671  0.21271506  0.27136665    -0.79300
C41         C  0.18197114  0.22385761  0.25384690     0.81500
N42         N  0.16384045  0.25170046  0.27051970    -0.81000
C43         C  0.31324362  0.26676423  0.30643882     0.79000
N44         N  0.28130677  0.25813055  0.32019354    -0.79300
C45         C  0.26309963  0.23061875  0.30287080     0.81400
N46         N  0.27758440  0.21209418  0.27265745    -0.79300
C47         C  0.30715826  0.22303616  0.25571216     0.81500
N48         N  0.32499027  0.25101872  0.27252204    -0.81000
C49         C  0.42498838  0.42387032  0.41206827     0.79000
N50         N  0.45664005  0.43273221  0.39761230    -0.79300
C51         C  0.47511655  0.46012486  0.41474791     0.81400
N52         N  0.46122220  0.47824020  0.44558669    -0.79300
C53         C  0.43196991  0.46710893  0.46310428     0.81500
N54         N  0.41383644  0.43926120  0.44643959    -0.81000
C55         C  0.06324923  0.42414755  0.41056968     0.79000
N56         N  0.07499225  0.43988944  0.44449046    -0.79300
C57         C  0.05716164  0.46787210  0.46129896     0.81400
N58         N  0.02759316  0.47881677  0.44434871    -0.79300
C59         C  0.01311444  0.46030028  0.41412613     0.81500
N60         N  0.03131942  0.43278769  0.39680644    -0.81000
C61         C  0.42615656  0.01671256  0.05652938     0.79000
N62         N  0.45809088  0.00808729  0.07029570    -0.79300
C63         C  0.47629876  0.48056648  0.05299112     0.81400
N64         N  0.46182025  0.46203104  0.02278176    -0.79300
C65         C  0.43224800  0.47296175  0.00582609     0.81500
N66         N  0.41441557  0.50094838  0.02262120    -0.81000
C67         C  0.06443128  0.01699033  0.05503106     0.79000
N68         N  0.07558341  0.50157754  0.02067085    -0.79300
C69         C  0.05744838  0.47372500  0.00402090     0.81400
N70         N  0.02819251  0.46260726  0.02154373    -0.79300
C71         C  0.01429883  0.48074267  0.05236956     0.81500
N72         N  0.03277694  0.00814337  0.06948940    -0.81000
C73         C  0.42498365  0.26694653  0.41195505     0.79000
N74         N  0.41382720  0.25151048  0.44630144    -0.79300
C75         C  0.43196310  0.22365609  0.46294041     0.81400
N76         N  0.46122547  0.21255804  0.44541802    -0.79300
C77         C  0.47512274  0.23071682  0.41460638     0.81500
N78         N  0.45664170  0.25811775  0.39749929    -0.81000
C79         C  0.06325103  0.26674607  0.41046408     0.79000
N80         N  0.03132355  0.25809794  0.39669231    -0.79300
C81         C  0.01312227  0.23056986  0.41399852     0.81400
N82         N  0.02760195  0.21205035  0.44421792    -0.79300
C83         C  0.05716684  0.22300243  0.46117725     0.81500
N84         N  0.07499163  0.25099648  0.44437968    -0.81000
C85         C  0.42616196  0.17409662  0.05641313     0.79000
N86         N  0.45808943  0.18275422  0.07017833    -0.79300
C87         C  0.47629159  0.21026735  0.05284848     0.81400
N88         N  0.46181465  0.22876348  0.02261347    -0.79300
C89         C  0.43225218  0.21780032  0.00566238     0.81500
N90         N  0.41442340  0.18981859  0.02247939    -0.81000
C91         C  0.06443084  0.17389736  0.05492243     0.79000
N92         N  0.07558537  0.18930500  0.02055877    -0.79300
C93         C  0.05744451  0.21714713  0.00389820     0.81400
N94         N  0.02818428  0.22825545  0.02141331    -0.79300
C95         C  0.01429040  0.21011982  0.05224105     0.81500
N96         N  0.03277299  0.18273521  0.06937096    -0.81000
O97         O  0.11045574  0.38290220  0.40819498    -0.75700
O98         O  0.16400803  0.30821840  0.35763833    -0.75700
O99         O  0.16400837  0.38276103  0.35770599    -0.75800
O100        O  0.11045545  0.30799902  0.40813368    -0.75800
O101        O  0.07388910  0.30816120  0.35776451    -0.75700
O102        O  0.12750021  0.38298216  0.30728084    -0.75700
O103        O  0.12750265  0.30806936  0.30721057    -0.75700
O104        O  0.07388793  0.38279467  0.35782665    -0.75800
Ni105      Ni  0.13849074  0.34546848  0.38474437     1.25400
Ni106      Ni  0.09941166  0.34550281  0.33068617     1.25400
C107        C  0.08343668  0.39517062  0.39131126     0.86500
C108        C  0.15455026  0.29587556  0.32411588     0.86400
C109        C  0.15454714  0.39515506  0.32420858     0.86500
C110        C  0.08343687  0.29574670  0.39123359     0.86600
O111        O  0.36045214  0.30801300  0.30881018    -0.75700
O112        O  0.41400670  0.38271314  0.35934460    -0.75700
O113        O  0.41400722  0.30816948  0.35929283    -0.75800
O114        O  0.36045046  0.38291603  0.30885809    -0.75800
O115        O  0.32388519  0.38275778  0.35923149    -0.76100
O116        O  0.37750063  0.30795004  0.40972271    -0.75700
O117        O  0.37750302  0.38286598  0.40977758    -0.75700
O118        O  0.32388421  0.30812203  0.35918163    -0.75800
Ni119      Ni  0.38848777  0.34545460  0.33225079     1.25400
Ni120      Ni  0.34941006  0.34542300  0.38631366     1.25400
C121        C  0.33343263  0.29574449  0.32569782     0.86500
C122        C  0.40455088  0.39506167  0.39286577     0.86400
C123        C  0.40454747  0.29577771  0.39279389     0.86500
C124        C  0.33343172  0.39516735  0.32575859     0.86600
O125        O  0.16553804  0.13280528  0.10775328    -0.75700
O126        O  0.11192013  0.05799071  0.05727450    -0.75700
O127        O  0.11192148  0.13290475  0.05721190    -0.75800
O128        O  0.16553743  0.05816828  0.10781951    -0.75800
O129        O  0.12897265  0.05807126  0.15819378    -0.75700
O130        O  0.07541532  0.13274679  0.10764254    -0.75700
O131        O  0.07541592  0.05820458  0.10770652    -0.75700
O132        O  0.12896990  0.13297581  0.15812441    -0.75800
Ni133      Ni  0.14001287  0.09546550  0.08068011     1.25400
Ni134      Ni  0.10093540  0.09550071  0.13474296     1.25400
C135        C  0.15598814  0.14522772  0.14121861     0.86500
C136        C  0.08487145  0.04581681  0.07420261     0.86400
C137        C  0.08487268  0.14509505  0.07412232     0.86500
C138        C  0.15599064  0.04579794  0.14130970     0.86600
O139        O  0.36190255  0.13291961  0.15972359    -0.75700
O140        O  0.41551632  0.05812221  0.10922544    -0.75700
O141        O  0.41551629  0.13275401  0.10917091    -0.75800
O142        O  0.36190350  0.05800498  0.15977160    -0.75800
O143        O  0.32539596  0.05816463  0.10934550    -0.75700
O144        O  0.37895042  0.13285488  0.05880103    -0.75700
O145        O  0.37894830  0.05795344  0.05885752    -0.75700
O146        O  0.32539710  0.13270897  0.10929630    -0.75800
Ni147      Ni  0.38999248  0.09545180  0.13630773     1.25400
Ni148      Ni  0.35091357  0.09541949  0.08224931     1.25400
C149        C  0.33485694  0.14509579  0.14279934     0.86500
C150        C  0.40596742  0.04570624  0.07575608     0.86400
C151        C  0.40597073  0.14512469  0.07568265     0.86500
C152        C  0.33485697  0.04581018  0.14285944     0.86600
C153        C  0.17498342  0.42398764  0.80504659     0.79000
N154        N  0.20664322  0.43281500  0.81949741    -0.79300
C155        C  0.22512939  0.46020985  0.80238234     0.81400
N156        N  0.21123671  0.47836412  0.77156683    -0.79300
C157        C  0.18196840  0.46726909  0.75405426     0.81500
N158        N  0.16382754  0.43941945  0.77070138    -0.81000
C159        C  0.31324626  0.42416337  0.80652194     0.79000
N160        N  0.28132358  0.43282229  0.82029887    -0.79300
C161        C  0.26312946  0.46035004  0.80298768     0.81400
N162        N  0.27761098  0.47885840  0.77276021    -0.79300
C163        C  0.30716689  0.46789269  0.75579456     0.81500
N164        N  0.32498625  0.43989896  0.77259486    -0.81000
C165        C  0.31442288  0.01699552  0.66205281     0.79000
N166        N  0.32557931  0.50158593  0.69641046    -0.79300
C167        C  0.30744017  0.47374122  0.71307231     0.81400
N168        N  0.27817521  0.46263234  0.69556426    -0.79300
C169        C  0.26428240  0.48076639  0.66473618     0.81500
N170        N  0.28276656  0.00815288  0.64760501    -0.81000
C171        C  0.17617301  0.01681966  0.66057820     0.79000
N172        N  0.20809333  0.00814565  0.64680284    -0.79300
C173        C  0.22628492  0.48062583  0.66413074     0.81400
N174        N  0.21180250  0.46213774  0.69437128    -0.79300
C175        C  0.18225065  0.47311771  0.71133133     0.81500
N176        N  0.16443332  0.50110656  0.69451667    -0.81000
C177        C  0.17617178  0.17423623  0.66043635     0.79000
N178        N  0.16442204  0.19001073  0.69433618    -0.79300
C179        C  0.18225038  0.21800603  0.71112391     0.81400
N180        N  0.21182670  0.22893678  0.69417087    -0.79300
C181        C  0.22631382  0.21038849  0.66397463     0.81500
N182        N  0.20810806  0.18286049  0.64667559    -0.81000
C183        C  0.31442702  0.17392656  0.66197182     0.79000
N184        N  0.32557502  0.18932897  0.69633817    -0.79300
C185        C  0.30744856  0.21718532  0.71298996     0.81400
N186        N  0.27820147  0.22831612  0.69546153    -0.79300
C187        C  0.26431265  0.21019681  0.66462143     0.81500
N188        N  0.28278348  0.18279342  0.64750202    -0.81000
C189        C  0.17498642  0.26707346  0.80490321     0.79000
N190        N  0.20662919  0.25819813  0.81936666    -0.79300
C191        C  0.22510248  0.23081069  0.80222367     0.81400
N192        N  0.21121670  0.21271517  0.77136677    -0.79300
C193        C  0.18197114  0.22385767  0.75384682     0.81500
N194        N  0.16384052  0.25170044  0.77051980    -0.81000
C195        C  0.31324330  0.26676427  0.80643910     0.79000
N196        N  0.28130713  0.25813075  0.82019356    -0.79300
C197        C  0.26309962  0.23061871  0.80287067     0.81400
N198        N  0.27758424  0.21209408  0.77265752    -0.79300
C199        C  0.30715869  0.22303637  0.75571208     0.81500
N200        N  0.32499042  0.25101866  0.77252178    -0.81000
C201        C  0.42498888  0.42387071  0.91206844     0.79000
N202        N  0.45663986  0.43273207  0.89761238    -0.79300
C203        C  0.47511610  0.46012476  0.91474806     0.81400
N204        N  0.46122273  0.47824047  0.94558659    -0.79300
C205        C  0.43196905  0.46710816  0.96310456     0.81500
N206        N  0.41383658  0.43926149  0.94643975    -0.81000
C207        C  0.06324956  0.42414749  0.91056977     0.79000
N208        N  0.07499190  0.43988969  0.94449049    -0.79300
C209        C  0.05716199  0.46787152  0.96129864     0.81400
N210        N  0.02759330  0.47881689  0.94434880    -0.79300
C211        C  0.01311388  0.46030037  0.91412604     0.81500
N212        N  0.03131945  0.43278760  0.89680644    -0.81000
C213        C  0.42615767  0.01671218  0.55652975     0.79000
N214        N  0.45809019  0.00808765  0.57029552    -0.79300
C215        C  0.47629926  0.48056626  0.55299118     0.81400
N216        N  0.46181954  0.46203105  0.52278123    -0.79300
C217        C  0.43224875  0.47296152  0.50582692     0.81500
N218        N  0.41441547  0.50094841  0.52262085    -0.81000
C219        C  0.06443178  0.01699069  0.55503084     0.79000
N220        N  0.07558344  0.50157756  0.52067086    -0.79300
C221        C  0.05744826  0.47372478  0.50402082     0.81400
N222        N  0.02819258  0.46260727  0.52154374    -0.79300
C223        C  0.01429905  0.48074252  0.55236948     0.81500
N224        N  0.03277688  0.00814317  0.56948917    -0.81000
C225        C  0.42498382  0.26694632  0.91195517     0.79000
N226        N  0.41382701  0.25151056  0.94630141    -0.79300
C227        C  0.43196294  0.22365595  0.96294035     0.81400
N228        N  0.46122572  0.21255788  0.94541796    -0.79300
C229        C  0.47512213  0.23071693  0.91460646     0.81500
N230        N  0.45664194  0.25811758  0.89749925    -0.81000
C231        C  0.06325106  0.26674640  0.91046347     0.79000
N232        N  0.03132335  0.25809787  0.89669227    -0.79300
C233        C  0.01312243  0.23056962  0.91399894     0.81400
N234        N  0.02760200  0.21205055  0.94421786    -0.79300
C235        C  0.05716630  0.22300175  0.96117697     0.81500
N236        N  0.07499192  0.25099658  0.94438005    -0.81000
C237        C  0.42616232  0.17409723  0.55641247     0.79000
N238        N  0.45808917  0.18275399  0.57017839    -0.79300
C239        C  0.47629143  0.21026737  0.55284872     0.81400
N240        N  0.46181487  0.22876356  0.52261348    -0.79300
C241        C  0.43225173  0.21779993  0.50566211     0.81500
N242        N  0.41442346  0.18981856  0.52247975    -0.81000
C243        C  0.06443094  0.17389773  0.55492169     0.79000
N244        N  0.07558485  0.18930519  0.52055907    -0.79300
C245        C  0.05744534  0.21714642  0.50389773     0.81400
N246        N  0.02818387  0.22825553  0.52141355    -0.79300
C247        C  0.01428965  0.21012031  0.55224077     0.81500
N248        N  0.03277324  0.18273483  0.56937128    -0.81000
O249        O  0.11045562  0.38290229  0.90819499    -0.75700
O250        O  0.16400816  0.30821836  0.85763834    -0.75700
O251        O  0.16400852  0.38276104  0.85770610    -0.75800
O252        O  0.11045562  0.30799908  0.90813361    -0.75800
O253        O  0.07388917  0.30816133  0.85776443    -0.75700
O254        O  0.12750052  0.38298220  0.80728089    -0.75700
O255        O  0.12750272  0.30806925  0.80721068    -0.75700
O256        O  0.07388793  0.38279465  0.85782664    -0.75800
Ni257      Ni  0.13849082  0.34546840  0.88474436     1.25400
Ni258      Ni  0.09941167  0.34550279  0.83068613     1.25400
C259        C  0.08343712  0.39517037  0.89131130     0.86500
C260        C  0.15455022  0.29587560  0.82411597     0.86400
C261        C  0.15454675  0.39515483  0.82420831     0.86500
C262        C  0.08343657  0.29574632  0.89123375     0.86600
O263        O  0.36045243  0.30801322  0.80881035    -0.75700
O264        O  0.41400680  0.38271322  0.85934480    -0.75700
O265        O  0.41400724  0.30816937  0.85929290    -0.75800
O266        O  0.36045086  0.38291581  0.80885814    -0.75800
O267        O  0.32388534  0.38275764  0.85923154    -0.76100
O268        O  0.37750070  0.30795002  0.90972279    -0.75700
O269        O  0.37750314  0.38286608  0.90977769    -0.75700
O270        O  0.32388432  0.30812220  0.85918196    -0.75800
Ni271      Ni  0.38848775  0.34545457  0.83225084     1.25400
Ni272      Ni  0.34941007  0.34542295  0.88631368     1.25400
C273        C  0.33343226  0.29574361  0.82569712     0.86500
C274        C  0.40455053  0.39506119  0.89286551     0.86400
C275        C  0.40454744  0.29577780  0.89279379     0.86500
C276        C  0.33343133  0.39516762  0.82575874     0.86600
O277        O  0.16553801  0.13280535  0.60775345    -0.75700
O278        O  0.11191982  0.05799058  0.55727450    -0.75700
O279        O  0.11192132  0.13290474  0.55721191    -0.75800
O280        O  0.16553742  0.05816821  0.60781954    -0.75800
O281        O  0.12897269  0.05807117  0.65819384    -0.75700
O282        O  0.07541535  0.13274677  0.60764279    -0.75700
O283        O  0.07541579  0.05820444  0.60770669    -0.75700
O284        O  0.12896982  0.13297573  0.65812458    -0.75800
Ni285      Ni  0.14001291  0.09546551  0.58068004     1.25400
Ni286      Ni  0.10093533  0.09550064  0.63474301     1.25400
C287        C  0.15598821  0.14522747  0.64121821     0.86500
C288        C  0.08487189  0.04581681  0.57420206     0.86400
C289        C  0.08487288  0.14509496  0.57412224     0.86500
C290        C  0.15599052  0.04579813  0.64130960     0.86600
O291        O  0.36190224  0.13291960  0.65972354    -0.75700
O292        O  0.41551602  0.05812217  0.60922506    -0.75700
O293        O  0.41551624  0.13275407  0.60917087    -0.75800
O294        O  0.36190322  0.05800484  0.65977148    -0.75800
O295        O  0.32539582  0.05816462  0.60934528    -0.75700
O296        O  0.37895040  0.13285505  0.55880101    -0.75700
O297        O  0.37894778  0.05795369  0.55885722    -0.75700
O298        O  0.32539689  0.13270893  0.60929627    -0.75800
Ni299      Ni  0.38999241  0.09545181  0.63630770     1.25400
Ni300      Ni  0.35091351  0.09541942  0.58224931     1.25400
C301        C  0.33485737  0.14509547  0.64279968     0.86500
C302        C  0.40596837  0.04570614  0.57575718     0.86400
C303        C  0.40597037  0.14512444  0.57568273     0.86500
C304        C  0.33485738  0.04581025  0.64285996     0.86600
C305        C  0.17498379  0.92398778  0.30504678     0.79000
N306        N  0.20664288  0.93281475  0.31949743    -0.79300
C307        C  0.22512951  0.96021007  0.30238211     0.81400
N308        N  0.21123672  0.97836403  0.27156686    -0.79300
C309        C  0.18196861  0.96726925  0.25405437     0.81500
N310        N  0.16382731  0.93941946  0.27070129    -0.81000
C311        C  0.31324691  0.92416320  0.30652151     0.79000
N312        N  0.28132316  0.93282229  0.32029908    -0.79300
C313        C  0.26312958  0.96035040  0.30298748     0.81400
N314        N  0.27761111  0.97885835  0.27276004    -0.79300
C315        C  0.30716671  0.96789236  0.25579503     0.81500
N316        N  0.32498608  0.93989919  0.27259468    -0.81000
C317        C  0.31442235  0.51699551  0.16205216     0.79000
N318        N  0.32557958  0.00158617  0.19641048    -0.79300
C319        C  0.30744029  0.97374108  0.21307225     0.81400
N320        N  0.27817486  0.96263222  0.19556409    -0.79300
C321        C  0.26428289  0.98076660  0.16473625     0.81500
N322        N  0.28276658  0.50815282  0.14760526    -0.81000
C323        C  0.17617308  0.51681956  0.16057810     0.79000
N324        N  0.20809363  0.50814543  0.14680279    -0.79300
C325        C  0.22628459  0.98062567  0.16413076     0.81400
N326        N  0.21180255  0.96213770  0.19437124    -0.79300
C327        C  0.18225045  0.97311784  0.21133110     0.81500
N328        N  0.16443322  0.00110648  0.19451686    -0.81000
C329        C  0.17617121  0.67423605  0.16043643     0.79000
N330        N  0.16442213  0.69001066  0.19433595    -0.79300
C331        C  0.18225049  0.71800636  0.21112409     0.81400
N332        N  0.21182654  0.72893674  0.19417091    -0.79300
C333        C  0.22631364  0.71038823  0.16397449     0.81500
N334        N  0.20810851  0.68286088  0.14667561    -0.81000
C335        C  0.31442680  0.67392678  0.16197186     0.79000
N336        N  0.32557514  0.68932907  0.19633835    -0.79300
C337        C  0.30744840  0.71718511  0.21298928     0.81400
N338        N  0.27820165  0.72831622  0.19546183    -0.79300
C339        C  0.26431245  0.71019696  0.16462140     0.81500
N340        N  0.28278367  0.68279327  0.14750182    -0.81000
C341        C  0.17498668  0.76707355  0.30490364     0.79000
N342        N  0.20662908  0.75819815  0.31936661    -0.79300
C343        C  0.22510238  0.73081091  0.30222371     0.81400
N344        N  0.21121669  0.71271510  0.27136666    -0.79300
C345        C  0.18197128  0.72385753  0.25384694     0.81500
N346        N  0.16384041  0.75170047  0.27051963    -0.81000
C347        C  0.31324347  0.76676420  0.30643888     0.79000
N348        N  0.28130687  0.75813063  0.32019354    -0.79300
C349        C  0.26309963  0.73061875  0.30287073     0.81400
N350        N  0.27758414  0.71209414  0.27265758    -0.79300
C351        C  0.30715867  0.72303640  0.25571200     0.81500
N352        N  0.32499011  0.75101861  0.27252205    -0.81000
C353        C  0.42498835  0.92387048  0.41206841     0.79000
N354        N  0.45664055  0.93273246  0.39761226    -0.79300
C355        C  0.47511556  0.96012447  0.41474791     0.81400
N356        N  0.46122242  0.97824029  0.44558661    -0.79300
C357        C  0.43197009  0.96710893  0.46310430     0.81500
N358        N  0.41383635  0.93926111  0.44643958    -0.81000
C359        C  0.06324976  0.92414750  0.41056992     0.79000
N360        N  0.07499193  0.93988962  0.44449044    -0.79300
C361        C  0.05716195  0.96787165  0.46129897     0.81400
N362        N  0.02759330  0.97881695  0.44434889    -0.79300
C363        C  0.01311383  0.96030019  0.41412599     0.81500
N364        N  0.03131929  0.93278775  0.39680637    -0.81000
C365        C  0.42615687  0.51671246  0.05652938     0.79000
N366        N  0.45809072  0.50808737  0.07029571    -0.79300
C367        C  0.47629887  0.98056648  0.05299113     0.81400
N368        N  0.46182010  0.96203108  0.02278170    -0.79300
C369        C  0.43224810  0.97296168  0.00582618     0.81500
N370        N  0.41441567  0.00094837  0.02262124    -0.81000
C371        C  0.06443158  0.51699042  0.05503085     0.79000
N372        N  0.07558368  0.00157766  0.02067070    -0.79300
C373        C  0.05744814  0.97372476  0.00402106     0.81400
N374        N  0.02819236  0.96260727  0.02154378    -0.79300
C375        C  0.01429937  0.98074262  0.05236934     0.81500
N376        N  0.03277694  0.50814335  0.06948944    -0.81000
C377        C  0.42498386  0.76694650  0.41195493     0.79000
N378        N  0.41382701  0.75151060  0.44630145    -0.79300
C379        C  0.43196329  0.72365592  0.46294032     0.81400
N380        N  0.46122550  0.71255805  0.44541803    -0.79300
C381        C  0.47512252  0.73071683  0.41460645     0.81500
N382        N  0.45664177  0.75811774  0.39749927    -0.81000
C383        C  0.06325096  0.76674620  0.41046380     0.79000
N384        N  0.03132367  0.75809800  0.39669235    -0.79300
C385        C  0.01312197  0.73056972  0.41399851     0.81400
N386        N  0.02760225  0.71205046  0.44421806    -0.79300
C387        C  0.05716627  0.72300200  0.46117696     0.81500
N388        N  0.07499188  0.75099661  0.44437982    -0.81000
C389        C  0.42616214  0.67409670  0.05641312     0.79000
N390        N  0.45808905  0.68275406  0.07017829    -0.79300
C391        C  0.47629188  0.71026743  0.05284851     0.81400
N392        N  0.46181464  0.72876349  0.02261345    -0.79300
C393        C  0.43225205  0.71780019  0.00566223     0.81500
N394        N  0.41442344  0.68981870  0.02247935    -0.81000
C395        C  0.06443080  0.67389753  0.05492222     0.79000
N396        N  0.07558522  0.68930508  0.02055893    -0.79300
C397        C  0.05744488  0.71714693  0.00389800     0.81400
N398        N  0.02818415  0.72825550  0.02141336    -0.79300
C399        C  0.01429038  0.71011977  0.05224108     0.81500
N400        N  0.03277306  0.68273516  0.06937099    -0.81000
O401        O  0.11045557  0.88290229  0.40819492    -0.75700
O402        O  0.16400794  0.80821845  0.35763829    -0.75700
O403        O  0.16400830  0.88276100  0.35770600    -0.75800
O404        O  0.11045563  0.80799920  0.40813367    -0.75800
O405        O  0.07388913  0.80816128  0.35776445    -0.75700
O406        O  0.12750002  0.88298211  0.30728087    -0.75700
O407        O  0.12750242  0.80806947  0.30721058    -0.75700
O408        O  0.07388788  0.88279463  0.35782653    -0.75800
Ni409      Ni  0.13849076  0.84546843  0.38474438     1.25400
Ni410      Ni  0.09941162  0.84550281  0.33068618     1.25400
C411        C  0.08343705  0.89517045  0.39131145     0.86500
C412        C  0.15455058  0.79587530  0.32411593     0.86400
C413        C  0.15454741  0.89515532  0.32420860     0.86500
C414        C  0.08343622  0.79574623  0.39123360     0.86600
O415        O  0.36045210  0.80801301  0.30881022    -0.75700
O416        O  0.41400678  0.88271329  0.35934459    -0.75700
O417        O  0.41400714  0.80816951  0.35929278    -0.75800
O418        O  0.36045038  0.88291599  0.30885820    -0.75800
O419        O  0.32388522  0.88275775  0.35923178    -0.76100
O420        O  0.37750059  0.80795013  0.40972280    -0.75700
O421        O  0.37750331  0.88286609  0.40977761    -0.75700
O422        O  0.32388426  0.80812203  0.35918174    -0.75800
Ni423      Ni  0.38848774  0.84545462  0.33225079     1.25400
Ni424      Ni  0.34941012  0.84542296  0.38631374     1.25400
C425        C  0.33343289  0.79574456  0.32569767     0.86500
C426        C  0.40455023  0.89506122  0.39286582     0.86400
C427        C  0.40454779  0.79577757  0.39279378     0.86500
C428        C  0.33343208  0.89516729  0.32575824     0.86600
O429        O  0.16553817  0.63280539  0.10775328    -0.75700
O430        O  0.11191996  0.55799060  0.05727442    -0.75700
O431        O  0.11192141  0.63290482  0.05721177    -0.75800
O432        O  0.16553754  0.55816816  0.10781952    -0.75800
O433        O  0.12897297  0.55807108  0.15819382    -0.75700
O434        O  0.07541542  0.63274691  0.10764250    -0.75700
O435        O  0.07541596  0.55820451  0.10770657    -0.75700
O436        O  0.12897025  0.63297600  0.15812444    -0.75800
Ni437      Ni  0.14001287  0.59546549  0.08068009     1.25400
Ni438      Ni  0.10093548  0.59550071  0.13474300     1.25400
C439        C  0.15598748  0.64522722  0.14121864     0.86500
C440        C  0.08487173  0.54581703  0.07420261     0.86400
C441        C  0.08487298  0.64509476  0.07412255     0.86500
C442        C  0.15599008  0.54579839  0.14130970     0.86600
O443        O  0.36190251  0.63291955  0.15972359    -0.75700
O444        O  0.41551627  0.55812221  0.10922533    -0.75700
O445        O  0.41551618  0.63275402  0.10917085    -0.75800
O446        O  0.36190332  0.55800489  0.15977161    -0.75800
O447        O  0.32539587  0.55816460  0.10934550    -0.75700
O448        O  0.37895027  0.63285481  0.05880098    -0.75700
O449        O  0.37894812  0.55795351  0.05885747    -0.75700
O450        O  0.32539707  0.63270897  0.10929629    -0.75800
Ni451      Ni  0.38999242  0.59545179  0.13630774     1.25400
Ni452      Ni  0.35091358  0.59541949  0.08224930     1.25400
C453        C  0.33485691  0.64509575  0.14279933     0.86500
C454        C  0.40596784  0.54570616  0.07575641     0.86400
C455        C  0.40597100  0.64512478  0.07568290     0.86500
C456        C  0.33485721  0.54581039  0.14285947     0.86600
C457        C  0.17498351  0.92398760  0.80504662     0.79000
N458        N  0.20664300  0.93281489  0.81949742    -0.79300
C459        C  0.22512981  0.96020990  0.80238239     0.81400
N460        N  0.21123682  0.97836420  0.77156692    -0.79300
C461        C  0.18196818  0.96726887  0.75405410     0.81500
N462        N  0.16382763  0.93941960  0.77070134    -0.81000
C463        C  0.31324689  0.92416330  0.80652152     0.79000
N464        N  0.28132350  0.93282230  0.82029894    -0.79300
C465        C  0.26312900  0.96035019  0.80298760     0.81400
N466        N  0.27761108  0.97885838  0.77276023    -0.79300
C467        C  0.30716710  0.96789233  0.75579445     0.81500
N468        N  0.32498593  0.93989920  0.77259495    -0.81000
C469        C  0.31442307  0.51699601  0.66205215     0.79000
N470        N  0.32557918  0.00158586  0.69641029    -0.79300
C471        C  0.30744071  0.97374168  0.71307240     0.81400
N472        N  0.27817487  0.96263212  0.69556423    -0.79300
C473        C  0.26428240  0.98076651  0.66473603     0.81500
N474        N  0.28276645  0.50815281  0.64760514    -0.81000
C475        C  0.17617298  0.51681974  0.66057808     0.79000
N476        N  0.20809352  0.50814556  0.64680288    -0.79300
C477        C  0.22628520  0.98062561  0.66413091     0.81400
N478        N  0.21180262  0.96213774  0.69437116    -0.79300
C479        C  0.18225022  0.97311802  0.71133157     0.81500
N480        N  0.16443348  0.00110641  0.69451667    -0.81000
C481        C  0.17617133  0.67423600  0.66043632     0.79000
N482        N  0.16442209  0.69001077  0.69433623    -0.79300
C483        C  0.18225058  0.71800606  0.71112383     0.81400
N484        N  0.21182647  0.72893669  0.69417090    -0.79300
C485        C  0.22631387  0.71038860  0.66397471     0.81500
N486        N  0.20810818  0.68286053  0.64667558    -0.81000
C487        C  0.31442670  0.67392680  0.66197192     0.79000
N488        N  0.32557507  0.68932891  0.69633807    -0.79300
C489        C  0.30744871  0.71718526  0.71299014     0.81400
N490        N  0.27820124  0.72831618  0.69546145    -0.79300
C491        C  0.26431274  0.71019665  0.66462133     0.81500
N492        N  0.28278356  0.68279339  0.64750199    -0.81000
C493        C  0.17498628  0.76707349  0.80490316     0.79000
N494        N  0.20662921  0.75819815  0.81936665    -0.79300
C495        C  0.22510263  0.73081078  0.80222375     0.81400
N496        N  0.21121673  0.71271516  0.77136672    -0.79300
C497        C  0.18197102  0.72385776  0.75384683     0.81500
N498        N  0.16384058  0.75170037  0.77051986    -0.81000
C499        C  0.31324352  0.76676421  0.80643882     0.79000
N500        N  0.28130700  0.75813069  0.82019360    -0.79300
C501        C  0.26309939  0.73061878  0.80287078     0.81400
N502        N  0.27758425  0.71209406  0.77265747    -0.79300
C503        C  0.30715885  0.72303645  0.75571189     0.81500
N504        N  0.32499025  0.75101863  0.77252198    -0.81000
C505        C  0.42498835  0.92387032  0.91206832     0.79000
N506        N  0.45663993  0.93273211  0.89761243    -0.79300
C507        C  0.47511697  0.96012483  0.91474790     0.81400
N508        N  0.46122229  0.97824037  0.94558683    -0.79300
C509        C  0.43196936  0.96710830  0.96310436     0.81500
N510        N  0.41383669  0.93926157  0.94643971    -0.81000
C511        C  0.06324992  0.92414746  0.91056997     0.79000
N512        N  0.07499196  0.93988962  0.94449044    -0.79300
C513        C  0.05716162  0.96787180  0.96129845     0.81400
N514        N  0.02759349  0.97881681  0.94434892    -0.79300
C515        C  0.01311404  0.96030033  0.91412609     0.81500
N516        N  0.03131914  0.93278768  0.89680642    -0.81000
C517        C  0.42615707  0.51671246  0.55652979     0.79000
N518        N  0.45809053  0.50808755  0.57029559    -0.79300
C519        C  0.47629913  0.98056642  0.55299127     0.81400
N520        N  0.46181995  0.96203089  0.52278130    -0.79300
C521        C  0.43224803  0.97296185  0.50582667     0.81500
N522        N  0.41441551  0.00094837  0.52262093    -0.81000
C523        C  0.06443152  0.51699041  0.55503096     0.79000
N524        N  0.07558327  0.00157761  0.52067119    -0.79300
C525        C  0.05744835  0.97372466  0.50402038     0.81400
N526        N  0.02819278  0.96260731  0.52154369    -0.79300
C527        C  0.01429853  0.98074291  0.55236985     0.81500
N528        N  0.03277690  0.50814332  0.56948943    -0.81000
C529        C  0.42498369  0.76694645  0.91195512     0.79000
N530        N  0.41382718  0.75151040  0.94630142    -0.79300
C531        C  0.43196305  0.72365598  0.96294043     0.81400
N532        N  0.46122550  0.71255799  0.94541804    -0.79300
C533        C  0.47512267  0.73071678  0.91460644     0.81500
N534        N  0.45664169  0.75811774  0.89749933    -0.81000
C535        C  0.06325088  0.76674611  0.91046372     0.79000
N536        N  0.03132334  0.75809781  0.89669227    -0.79300
C537        C  0.01312319  0.73056987  0.91399882     0.81400
N538        N  0.02760186  0.71205049  0.94421779    -0.79300
C539        C  0.05716646  0.72300187  0.96117710     0.81500
N540        N  0.07499199  0.75099664  0.94437996    -0.81000
C541        C  0.42616264  0.67409722  0.55641275     0.79000
N542        N  0.45808902  0.68275397  0.57017836    -0.79300
C543        C  0.47629160  0.71026744  0.55284872     0.81400
N544        N  0.46181485  0.72876360  0.52261344    -0.79300
C545        C  0.43225180  0.71780005  0.50566217     0.81500
N546        N  0.41442336  0.68981851  0.52247969    -0.81000
C547        C  0.06443114  0.67389769  0.55492161     0.79000
N548        N  0.07558501  0.68930501  0.52055904    -0.79300
C549        C  0.05744496  0.71714678  0.50389796     0.81400
N550        N  0.02818396  0.72825549  0.52141356    -0.79300
C551        C  0.01428997  0.71012029  0.55224070     0.81500
N552        N  0.03277298  0.68273494  0.56937133    -0.81000
O553        O  0.11045545  0.88290240  0.90819499    -0.75700
O554        O  0.16400812  0.80821834  0.85763835    -0.75700
O555        O  0.16400840  0.88276099  0.85770605    -0.75800
O556        O  0.11045549  0.80799902  0.90813371    -0.75800
O557        O  0.07388910  0.80816117  0.85776461    -0.75700
O558        O  0.12750030  0.88298212  0.80728084    -0.75700
O559        O  0.12750273  0.80806926  0.80721066    -0.75700
O560        O  0.07388784  0.88279465  0.85782666    -0.75800
Ni561      Ni  0.13849076  0.84546839  0.88474438     1.25400
Ni562      Ni  0.09941169  0.84550280  0.83068617     1.25400
C563        C  0.08343732  0.89517020  0.89131135     0.86500
C564        C  0.15455019  0.79587560  0.82411596     0.86400
C565        C  0.15454718  0.89515501  0.82420856     0.86500
C566        C  0.08343681  0.79574670  0.89123342     0.86600
O567        O  0.36045228  0.80801309  0.80881025    -0.75700
O568        O  0.41400678  0.88271315  0.85934467    -0.75700
O569        O  0.41400726  0.80816946  0.85929285    -0.75800
O570        O  0.36045058  0.88291597  0.80885810    -0.75800
O571        O  0.32388524  0.88275776  0.85923151    -0.76100
O572        O  0.37750068  0.80795001  0.90972273    -0.75700
O573        O  0.37750314  0.88286602  0.90977764    -0.75700
O574        O  0.32388428  0.80812214  0.85918185    -0.75800
Ni575      Ni  0.38848778  0.84545459  0.83225081     1.25400
Ni576      Ni  0.34941007  0.84542295  0.88631364     1.25400
C577        C  0.33343250  0.79574391  0.82569729     0.86500
C578        C  0.40455071  0.89506149  0.89286583     0.86400
C579        C  0.40454751  0.79577767  0.89279393     0.86500
C580        C  0.33343164  0.89516735  0.82575876     0.86600
O581        O  0.16553803  0.63280534  0.60775331    -0.75700
O582        O  0.11191995  0.55799060  0.55727444    -0.75700
O583        O  0.11192129  0.63290470  0.55721192    -0.75800
O584        O  0.16553731  0.55816829  0.60781951    -0.75800
O585        O  0.12897258  0.55807123  0.65819386    -0.75700
O586        O  0.07541532  0.63274676  0.60764282    -0.75700
O587        O  0.07541584  0.55820439  0.60770652    -0.75700
O588        O  0.12896994  0.63297578  0.65812448    -0.75800
Ni589      Ni  0.14001285  0.59546554  0.58068004     1.25400
Ni590      Ni  0.10093532  0.59550064  0.63474301     1.25400
C591        C  0.15598793  0.64522752  0.64121861     0.86500
C592        C  0.08487162  0.54581680  0.57420259     0.86400
C593        C  0.08487277  0.64509501  0.57412223     0.86500
C594        C  0.15599066  0.54579801  0.64130957     0.86600
O595        O  0.36190236  0.63291959  0.65972364    -0.75700
O596        O  0.41551613  0.55812216  0.60922521    -0.75700
O597        O  0.41551614  0.63275402  0.60917094    -0.75800
O598        O  0.36190344  0.55800498  0.65977161    -0.75800
O599        O  0.32539598  0.55816466  0.60934534    -0.75700
O600        O  0.37895026  0.63285481  0.55880095    -0.75700
O601        O  0.37894800  0.55795362  0.55885728    -0.75700
O602        O  0.32539700  0.63270904  0.60929637    -0.75800
Ni603      Ni  0.38999244  0.59545178  0.63630776     1.25400
Ni604      Ni  0.35091357  0.59541943  0.58224927     1.25400
C605        C  0.33485731  0.64509539  0.64279928     0.86500
C606        C  0.40596819  0.54570604  0.57575675     0.86400
C607        C  0.40597086  0.64512474  0.57568278     0.86500
C608        C  0.33485673  0.54580981  0.64285988     0.86600
C609        C  0.67498345  0.42398777  0.30504648     0.79000
N610        N  0.70664317  0.43281492  0.31949746    -0.79300
C611        C  0.72512958  0.46020998  0.30238218     0.81400
N612        N  0.71123680  0.47836409  0.27156690    -0.79300
C613        C  0.68196834  0.46726906  0.25405424     0.81500
N614        N  0.66382751  0.43941948  0.27070140    -0.81000
C615        C  0.81324680  0.42416285  0.30652214     0.79000
N616        N  0.78132351  0.43282222  0.32029890    -0.79300
C617        C  0.76312901  0.46035063  0.30298736     0.81400
N618        N  0.77761127  0.47885825  0.27276015    -0.79300
C619        C  0.80716678  0.46789238  0.25579478     0.81500
N620        N  0.82498605  0.43989934  0.27259448    -0.81000
C621        C  0.81442304  0.01699570  0.16205242     0.79000
N622        N  0.82557942  0.50158604  0.19641042    -0.79300
C623        C  0.80744029  0.47374101  0.21307245     0.81400
N624        N  0.77817509  0.46263229  0.19556413    -0.79300
C625        C  0.76428229  0.48076643  0.16473618     0.81500
N626        N  0.78276642  0.00815274  0.14760520    -0.81000
C627        C  0.67617223  0.01681985  0.16057849     0.79000
N628        N  0.70809366  0.00814551  0.14680271    -0.79300
C629        C  0.72628463  0.48062562  0.16413085     0.81400
N630        N  0.71180270  0.46213768  0.19437112    -0.79300
C631        C  0.68225047  0.47311792  0.21133115     0.81500
N632        N  0.66443332  0.50110645  0.19451687    -0.81000
C633        C  0.67617146  0.17423611  0.16043642     0.79000
N634        N  0.66442202  0.19001059  0.19433599    -0.79300
C635        C  0.68225056  0.21800637  0.21112428     0.81400
N636        N  0.71182661  0.22893675  0.19417077    -0.79300
C637        C  0.72631362  0.21038825  0.16397445     0.81500
N638        N  0.70810831  0.18286079  0.14667561    -0.81000
C639        C  0.81442693  0.17392672  0.16197189     0.79000
N640        N  0.82557496  0.18932917  0.19633832    -0.79300
C641        C  0.80744863  0.21718501  0.21298926     0.81400
N642        N  0.77820160  0.22831621  0.19546175    -0.79300
C643        C  0.76431237  0.21019708  0.16462153     0.81500
N644        N  0.78278365  0.18279325  0.14750178    -0.81000
C645        C  0.67498642  0.26707343  0.30490316     0.79000
N646        N  0.70662921  0.25819806  0.31936656    -0.79300
C647        C  0.72510255  0.23081111  0.30222402     0.81400
N648        N  0.71121665  0.21271508  0.27136662    -0.79300
C649        C  0.68197106  0.22385765  0.25384664     0.81500
N650        N  0.66384063  0.25170046  0.27051988    -0.81000
C651        C  0.81324336  0.26676431  0.30643917     0.79000
N652        N  0.78130695  0.25813047  0.32019339    -0.79300
C653        C  0.76309967  0.23061894  0.30287095     0.81400
N654        N  0.77758429  0.21209402  0.27265747    -0.79300
C655        C  0.80715859  0.22303644  0.25571222     0.81500
N656        N  0.82499031  0.25101860  0.27252180    -0.81000
C657        C  0.92498852  0.42387062  0.41206844     0.79000
N658        N  0.95664029  0.43273229  0.39761223    -0.79300
C659        C  0.97511567  0.46012471  0.41474815     0.81400
N660        N  0.96122262  0.47824028  0.44558650    -0.79300
C661        C  0.93196961  0.46710865  0.46310444     0.81500
N662        N  0.91383648  0.43926124  0.44643959    -0.81000
C663        C  0.56324978  0.42414728  0.41056978     0.79000
N664        N  0.57499190  0.43988964  0.44449044    -0.79300
C665        C  0.55716184  0.46787178  0.46129892     0.81400
N666        N  0.52759331  0.47881684  0.44434878    -0.79300
C667        C  0.51311387  0.46030031  0.41412602     0.81500
N668        N  0.53131927  0.43278775  0.39680636    -0.81000
C669        C  0.92615737  0.01671261  0.05652997     0.79000
N670        N  0.95809027  0.00808749  0.07029545    -0.79300
C671        C  0.97629933  0.48056641  0.05299138     0.81400
N672        N  0.96181966  0.46203115  0.02278144    -0.79300
C673        C  0.93224850  0.47296146  0.00582658     0.81500
N674        N  0.91441550  0.50094832  0.02262088    -0.81000
C675        C  0.56443180  0.01699047  0.05503077     0.79000
N676        N  0.57558323  0.50157745  0.02067088    -0.79300
C677        C  0.55744842  0.47372499  0.00402086     0.81400
N678        N  0.52819267  0.46260733  0.02154374    -0.79300
C679        C  0.51429851  0.48074245  0.05236949     0.81500
N680        N  0.53277707  0.00814342  0.06948940    -0.81000
C681        C  0.92498344  0.26694644  0.41195530     0.79000
N682        N  0.91382698  0.25151069  0.44630136    -0.79300
C683        C  0.93196344  0.22365585  0.46294012     0.81400
N684        N  0.96122553  0.21255804  0.44541803    -0.79300
C685        C  0.97512205  0.23071698  0.41460652     0.81500
N686        N  0.95664226  0.25811754  0.39749916    -0.81000
C687        C  0.56325090  0.26674620  0.41046373     0.79000
N688        N  0.53132342  0.25809795  0.39669225    -0.79300
C689        C  0.51312251  0.23056973  0.41399871     0.81400
N690        N  0.52760193  0.21205045  0.44421786    -0.79300
C691        C  0.55716639  0.22300198  0.46117693     0.81500
N692        N  0.57499198  0.25099672  0.44437987    -0.81000
C693        C  0.92616197  0.17409693  0.05641269     0.79000
N694        N  0.95808944  0.18275423  0.07017823    -0.79300
C695        C  0.97629134  0.21026702  0.05284879     0.81400
N696        N  0.96181454  0.22876348  0.02261327    -0.79300
C697        C  0.93225233  0.21780041  0.00566221     0.81500
N698        N  0.91442336  0.18981850  0.02247964    -0.81000
C699        C  0.56443091  0.17389747  0.05492207     0.79000
N700        N  0.57558495  0.18930517  0.02055909    -0.79300
C701        C  0.55744496  0.21714685  0.00389768     0.81400
N702        N  0.52818427  0.22825540  0.02141345    -0.79300
C703        C  0.51428952  0.21012012  0.05224106     0.81500
N704        N  0.53277332  0.18273495  0.06937110    -0.81000
O705        O  0.61045566  0.38290230  0.40819491    -0.75700
O706        O  0.66400821  0.30821835  0.35763829    -0.75700
O707        O  0.66400856  0.38276106  0.35770605    -0.75800
O708        O  0.61045565  0.30799916  0.40813360    -0.75800
O709        O  0.57388923  0.30816130  0.35776432    -0.75700
O710        O  0.62750046  0.38298228  0.30728093    -0.75700
O711        O  0.62750285  0.30806927  0.30721060    -0.75700
O712        O  0.57388800  0.38279462  0.35782648    -0.75800
Ni713      Ni  0.63849085  0.34546844  0.38474433     1.25400
Ni714      Ni  0.59941169  0.34550279  0.33068612     1.25400
C715        C  0.58343702  0.39517055  0.39131150     0.86500
C716        C  0.65455001  0.29587581  0.32411590     0.86400
C717        C  0.65454676  0.39515487  0.32420834     0.86500
C718        C  0.58343665  0.29574630  0.39123392     0.86600
O719        O  0.86045222  0.30801312  0.30881024    -0.75700
O720        O  0.91400677  0.38271331  0.35934461    -0.75700
O721        O  0.91400720  0.30816942  0.35929280    -0.75800
O722        O  0.86045057  0.38291583  0.30885811    -0.75800
O723        O  0.82388526  0.38275767  0.35923166    -0.76100
O724        O  0.87750082  0.30794997  0.40972281    -0.75700
O725        O  0.87750329  0.38286615  0.40977761    -0.75700
O726        O  0.82388422  0.30812203  0.35918172    -0.75800
Ni727      Ni  0.88848772  0.34545463  0.33225076     1.25400
Ni728      Ni  0.84941006  0.34542295  0.38631373     1.25400
C729        C  0.83343254  0.29574427  0.32569759     0.86500
C730        C  0.90455011  0.39506119  0.39286583     0.86400
C731        C  0.90454720  0.29577798  0.39279379     0.86500
C732        C  0.83343144  0.39516761  0.32575841     0.86600
O733        O  0.66553804  0.13280543  0.10775339    -0.75700
O734        O  0.61191983  0.05799054  0.05727448    -0.75700
O735        O  0.61192137  0.13290481  0.05721172    -0.75800
O736        O  0.66553746  0.05816834  0.10781927    -0.75800
O737        O  0.62897296  0.05807117  0.15819377    -0.75700
O738        O  0.57541539  0.13274685  0.10764249    -0.75700
O739        O  0.57541584  0.05820447  0.10770658    -0.75700
O740        O  0.62896999  0.13297588  0.15812453    -0.75800
Ni741      Ni  0.64001286  0.09546552  0.08068007     1.25400
Ni742      Ni  0.60093542  0.09550069  0.13474304     1.25400
C743        C  0.65598791  0.14522737  0.14121830     0.86500
C744        C  0.58487192  0.04581712  0.07420254     0.86400
C745        C  0.58487275  0.14509478  0.07412265     0.86500
C746        C  0.65599027  0.04579801  0.14131019     0.86600
O747        O  0.86190240  0.13291958  0.15972355    -0.75700
O748        O  0.91551608  0.05812217  0.10922513    -0.75700
O749        O  0.91551621  0.13275415  0.10917078    -0.75800
O750        O  0.86190318  0.05800479  0.15977157    -0.75800
O751        O  0.82539578  0.05816454  0.10934550    -0.75700
O752        O  0.87895041  0.13285504  0.05880097    -0.75700
O753        O  0.87894782  0.05795369  0.05885734    -0.75700
O754        O  0.82539697  0.13270894  0.10929625    -0.75800
Ni755      Ni  0.88999241  0.09545183  0.13630776     1.25400
Ni756      Ni  0.85091350  0.09541946  0.08224931     1.25400
C757        C  0.83485702  0.14509565  0.14279940     0.86500
C758        C  0.90596841  0.04570607  0.07575713     0.86400
C759        C  0.90597037  0.14512434  0.07568300     0.86500
C760        C  0.83485735  0.04581044  0.14285949     0.86600
C761        C  0.67498381  0.42398775  0.80504676     0.79000
N762        N  0.70664304  0.43281488  0.81949738    -0.79300
C763        C  0.72512914  0.46020976  0.80238231     0.81400
N764        N  0.71123692  0.47836416  0.77156690    -0.79300
C765        C  0.68196831  0.46726902  0.75405426     0.81500
N766        N  0.66382741  0.43941951  0.77070129    -0.81000
C767        C  0.81324681  0.42416329  0.80652171     0.79000
N768        N  0.78132314  0.43282241  0.82029895    -0.79300
C769        C  0.76312977  0.46035013  0.80298750     0.81400
N770        N  0.77761107  0.47885830  0.77276023    -0.79300
C771        C  0.80716651  0.46789281  0.75579460     0.81500
N772        N  0.82498619  0.43989895  0.77259485    -0.81000
C773        C  0.81442324  0.01699581  0.66205266     0.79000
N774        N  0.82557932  0.50158595  0.69641047    -0.79300
C775        C  0.80744037  0.47374131  0.71307233     0.81400
N776        N  0.77817503  0.46263232  0.69556422    -0.79300
C777        C  0.76428262  0.48076644  0.66473623     0.81500
N778        N  0.78276642  0.00815283  0.64760508    -0.81000
C779        C  0.67617321  0.01681959  0.66057796     0.79000
N780        N  0.70809340  0.00814549  0.64680298    -0.79300
C781        C  0.72628433  0.48062594  0.66413088     0.81400
N782        N  0.71180282  0.46213764  0.69437115    -0.79300
C783        C  0.68225016  0.47311796  0.71133145     0.81500
N784        N  0.66443332  0.50110652  0.69451664    -0.81000
C785        C  0.67617148  0.17423602  0.66043630     0.79000
N786        N  0.66442224  0.19001094  0.69433614    -0.79300
C787        C  0.68224990  0.21800571  0.71112405     0.81400
N788        N  0.71182664  0.22893680  0.69417090    -0.79300
C789        C  0.72631439  0.21038852  0.66397457     0.81500
N790        N  0.70810795  0.18286048  0.64667564    -0.81000
C791        C  0.81442686  0.17392655  0.66197172     0.79000
N792        N  0.82557504  0.18932894  0.69633810    -0.79300
C793        C  0.80744862  0.21718536  0.71299005     0.81400
N794        N  0.77820156  0.22831610  0.69546164    -0.79300
C795        C  0.76431191  0.21019686  0.66462123     0.81500
N796        N  0.78278377  0.18279332  0.64750205    -0.81000
C797        C  0.67498634  0.26707353  0.80490329     0.79000
N798        N  0.70662918  0.25819814  0.81936664    -0.79300
C799        C  0.72510241  0.23081080  0.80222374     0.81400
N800        N  0.71121672  0.21271513  0.77136673    -0.79300
C801        C  0.68197109  0.22385782  0.75384679     0.81500
N802        N  0.66384052  0.25170033  0.77051979    -0.81000
C803        C  0.81324363  0.26676430  0.80643885     0.79000
N804        N  0.78130676  0.25813066  0.82019363    -0.79300
C805        C  0.76309954  0.23061873  0.80287073     0.81400
N806        N  0.77758438  0.21209416  0.77265741    -0.79300
C807        C  0.80715824  0.22303610  0.75571208     0.81500
N808        N  0.82499034  0.25101874  0.77252196    -0.81000
C809        C  0.92498867  0.42387049  0.91206823     0.79000
N810        N  0.95664009  0.43273217  0.89761238    -0.79300
C811        C  0.97511601  0.46012469  0.91474798     0.81400
N812        N  0.96122245  0.47824035  0.94558671    -0.79300
C813        C  0.93196973  0.46710863  0.96310421     0.81500
N814        N  0.91383627  0.43926125  0.94643983    -0.81000
C815        C  0.56324910  0.42414768  0.91056966     0.79000
N816        N  0.57499221  0.43988964  0.94449064    -0.79300
C817        C  0.55716189  0.46787157  0.96129859     0.81400
N818        N  0.52759305  0.47881691  0.94434872    -0.79300
C819        C  0.51311434  0.46030043  0.91412631     0.81500
N820        N  0.53131948  0.43278753  0.89680642    -0.81000
C821        C  0.92615716  0.01671238  0.55652954     0.79000
N822        N  0.95809065  0.00808736  0.57029542    -0.79300
C823        C  0.97629855  0.48056665  0.55299128     0.81400
N824        N  0.96182014  0.46203088  0.52278144    -0.79300
C825        C  0.93224814  0.47296186  0.50582666     0.81500
N826        N  0.91441547  0.50094840  0.52262093    -0.81000
C827        C  0.56443119  0.01699039  0.55503107     0.79000
N828        N  0.57558348  0.50157769  0.52067102    -0.79300
C829        C  0.55744853  0.47372490  0.50402049     0.81400
N830        N  0.52819236  0.46260717  0.52154383    -0.79300
C831        C  0.51429902  0.48074280  0.55236971     0.81500
N832        N  0.53277695  0.00814330  0.56948931    -0.81000
C833        C  0.92498364  0.26694644  0.91195512     0.79000
N834        N  0.91382711  0.25151046  0.94630137    -0.79300
C835        C  0.93196300  0.22365587  0.96294053     0.81400
N836        N  0.96122545  0.21255799  0.94541798    -0.79300
C837        C  0.97512272  0.23071681  0.91460641     0.81500
N838        N  0.95664164  0.25811773  0.89749934    -0.81000
C839        C  0.56325109  0.26674626  0.91046381     0.79000
N840        N  0.53132347  0.25809787  0.89669228    -0.79300
C841        C  0.51312232  0.23056968  0.91399871     0.81400
N842        N  0.52760204  0.21205049  0.94421788    -0.79300
C843        C  0.55716652  0.22300200  0.96117730     0.81500
N844        N  0.57499171  0.25099651  0.94437987    -0.81000
C845        C  0.92616208  0.17409697  0.55641270     0.79000
N846        N  0.95808910  0.18275397  0.57017838    -0.79300
C847        C  0.97629213  0.21026766  0.55284864     0.81400
N848        N  0.96181465  0.22876349  0.52261345    -0.79300
C849        C  0.93225185  0.21780012  0.50566222     0.81500
N850        N  0.91442350  0.18981859  0.52247968    -0.81000
C851        C  0.56443079  0.17389781  0.55492180     0.79000
N852        N  0.57558529  0.18930492  0.52055891    -0.79300
C853        C  0.55744482  0.21714687  0.50389816     0.81400
N854        N  0.52818397  0.22825547  0.52141347    -0.79300
C855        C  0.51429050  0.21012023  0.55224067     0.81500
N856        N  0.53277306  0.18273492  0.56937129    -0.81000
O857        O  0.61045574  0.38290217  0.90819507    -0.75700
O858        O  0.66400800  0.30821837  0.85763837    -0.75700
O859        O  0.66400837  0.38276101  0.85770606    -0.75800
O860        O  0.61045548  0.30799899  0.90813370    -0.75800
O861        O  0.57388907  0.30816120  0.85776464    -0.75700
O862        O  0.62750029  0.38298211  0.80728086    -0.75700
O863        O  0.62750260  0.30806929  0.80721064    -0.75700
O864        O  0.57388792  0.38279463  0.85782675    -0.75800
Ni865      Ni  0.63849068  0.34546844  0.88474438     1.25400
Ni866      Ni  0.59941167  0.34550280  0.83068619     1.25400
C867        C  0.58343661  0.39517051  0.89131103     0.86500
C868        C  0.65455031  0.29587548  0.82411598     0.86400
C869        C  0.65454703  0.39515499  0.82420849     0.86500
C870        C  0.58343663  0.29574665  0.89123333     0.86600
O871        O  0.86045225  0.30801311  0.80881025    -0.75700
O872        O  0.91400673  0.38271315  0.85934468    -0.75700
O873        O  0.91400719  0.30816945  0.85929287    -0.75800
O874        O  0.86045048  0.38291596  0.80885816    -0.75800
O875        O  0.82388517  0.38275774  0.85923157    -0.76100
O876        O  0.87750061  0.30795001  0.90972274    -0.75700
O877        O  0.87750303  0.38286598  0.90977764    -0.75700
O878        O  0.82388423  0.30812216  0.85918185    -0.75800
Ni879      Ni  0.88848773  0.34545457  0.83225082     1.25400
Ni880      Ni  0.84941002  0.34542297  0.88631366     1.25400
C881        C  0.83343232  0.29574383  0.82569729     0.86500
C882        C  0.90455068  0.39506150  0.89286583     0.86400
C883        C  0.90454744  0.29577766  0.89279394     0.86500
C884        C  0.83343189  0.39516733  0.82575846     0.86600
O885        O  0.66553809  0.13280526  0.60775337    -0.75700
O886        O  0.61192016  0.05799079  0.55727454    -0.75700
O887        O  0.61192147  0.13290475  0.55721191    -0.75800
O888        O  0.66553738  0.05816819  0.60781962    -0.75800
O889        O  0.62897261  0.05807118  0.65819383    -0.75700
O890        O  0.57541539  0.13274674  0.60764270    -0.75700
O891        O  0.57541590  0.05820456  0.60770667    -0.75700
O892        O  0.62896992  0.13297581  0.65812445    -0.75800
Ni893      Ni  0.64001284  0.09546553  0.58068010     1.25400
Ni894      Ni  0.60093536  0.09550062  0.63474293     1.25400
C895        C  0.65598799  0.14522749  0.64121858     0.86500
C896        C  0.58487131  0.04581637  0.57420212     0.86400
C897        C  0.58487268  0.14509512  0.57412229     0.86500
C898        C  0.65599053  0.04579813  0.64130944     0.86600
O899        O  0.86190251  0.13291949  0.65972359    -0.75700
O900        O  0.91551628  0.05812206  0.60922499    -0.75700
O901        O  0.91551628  0.13275396  0.60917102    -0.75800
O902        O  0.86190329  0.05800482  0.65977147    -0.75800
O903        O  0.82539591  0.05816473  0.60934518    -0.75700
O904        O  0.87895046  0.13285491  0.55880104    -0.75700
O905        O  0.87894813  0.05795349  0.55885729    -0.75700
O906        O  0.82539708  0.13270894  0.60929631    -0.75800
Ni907      Ni  0.88999248  0.09545179  0.63630769     1.25400
Ni908      Ni  0.85091357  0.09541947  0.58224931     1.25400
C909        C  0.83485698  0.14509576  0.64279951     0.86500
C910        C  0.90596769  0.04570664  0.57575698     0.86400
C911        C  0.90597063  0.14512477  0.57568239     0.86500
C912        C  0.83485726  0.04580999  0.64286021     0.86600
C913        C  0.67498351  0.92398776  0.30504657     0.79000
N914        N  0.70664309  0.93281486  0.31949747    -0.79300
C915        C  0.72512955  0.96021010  0.30238207     0.81400
N916        N  0.71123675  0.97836406  0.27156692    -0.79300
C917        C  0.68196842  0.96726905  0.25405431     0.81500
N918        N  0.66382745  0.93941946  0.27070139    -0.81000
C919        C  0.81324658  0.92416333  0.30652156     0.79000
N920        N  0.78132352  0.93282217  0.32029901    -0.79300
C921        C  0.76312920  0.96035039  0.30298757     0.81400
N922        N  0.77761106  0.97885840  0.27275998    -0.79300
C923        C  0.80716702  0.96789216  0.25579495     0.81500
N924        N  0.82498606  0.93989930  0.27259468    -0.81000
C925        C  0.81442239  0.51699559  0.16205208     0.79000
N926        N  0.82557921  0.00158601  0.19641032    -0.79300
C927        C  0.80744024  0.97374113  0.21307237     0.81400
N928        N  0.77817512  0.96263229  0.19556406    -0.79300
C929        C  0.76428223  0.98076659  0.16473615     0.81500
N930        N  0.78276687  0.50815293  0.14760527    -0.81000
C931        C  0.67617315  0.51681978  0.16057785     0.79000
N932        N  0.70809350  0.50814554  0.14680278    -0.79300
C933        C  0.72628520  0.98062563  0.16413073     0.81400
N934        N  0.71180231  0.96213775  0.19437127    -0.79300
C935        C  0.68225047  0.97311786  0.21133121     0.81500
N936        N  0.66443362  0.00110640  0.19451655    -0.81000
C937        C  0.67617134  0.67423591  0.16043618     0.79000
N938        N  0.66442206  0.69001062  0.19433611    -0.79300
C939        C  0.68225086  0.71800653  0.21112403     0.81400
N940        N  0.71182643  0.72893663  0.19417088    -0.79300
C941        C  0.72631377  0.71038844  0.16397456     0.81500
N942        N  0.70810828  0.68286072  0.14667563    -0.81000
C943        C  0.81442680  0.67392701  0.16197216     0.79000
N944        N  0.82557509  0.68932907  0.19633833    -0.79300
C945        C  0.80744858  0.71718507  0.21298939     0.81400
N946        N  0.77820130  0.72831625  0.19546160    -0.79300
C947        C  0.76431297  0.71019689  0.16462156     0.81500
N948        N  0.78278349  0.68279329  0.14750173    -0.81000
C949        C  0.67498648  0.76707347  0.30490335     0.79000
N950        N  0.70662927  0.75819805  0.31936666    -0.79300
C951        C  0.72510220  0.73081099  0.30222371     0.81400
N952        N  0.71121668  0.71271509  0.27136671    -0.79300
C953        C  0.68197121  0.72385755  0.25384694     0.81500
N954        N  0.66384044  0.75170052  0.27051966    -0.81000
C955        C  0.81324348  0.76676421  0.30643889     0.79000
N956        N  0.78130697  0.75813062  0.32019351    -0.79300
C957        C  0.76309973  0.73061877  0.30287074     0.81400
N958        N  0.77758424  0.71209414  0.27265760    -0.79300
C959        C  0.80715869  0.72303645  0.25571208     0.81500
N960        N  0.82499025  0.75101863  0.27252193    -0.81000
C961        C  0.92498829  0.92387026  0.41206823     0.79000
N962        N  0.95664007  0.93273224  0.39761236    -0.79300
C963        C  0.97511683  0.96012473  0.41474782     0.81400
N964        N  0.96122220  0.97824025  0.44558680    -0.79300
C965        C  0.93196980  0.96710865  0.46310441     0.81500
N966        N  0.91383665  0.93926141  0.44643961    -0.81000
C967        C  0.56324980  0.92414746  0.41056993     0.79000
N968        N  0.57499207  0.93988944  0.44449043    -0.79300
C969        C  0.55716137  0.96787207  0.46129863     0.81400
N970        N  0.52759350  0.97881682  0.44434899    -0.79300
C971        C  0.51311424  0.96030017  0.41412596     0.81500
N972        N  0.53131917  0.93278772  0.39680637    -0.81000
C973        C  0.92615690  0.51671282  0.05652995     0.79000
N974        N  0.95809043  0.50808741  0.07029548    -0.79300
C975        C  0.97629915  0.98056641  0.05299134     0.81400
N976        N  0.96181982  0.96203111  0.02278140    -0.79300
C977        C  0.93224844  0.97296145  0.00582649     0.81500
N978        N  0.91441544  0.00094834  0.02262094    -0.81000
C979        C  0.56443185  0.51699050  0.05503074     0.79000
N980        N  0.57558322  0.00157740  0.02067092    -0.79300
C981        C  0.55744845  0.97372505  0.00402085     0.81400
N982        N  0.52819266  0.96260733  0.02154368    -0.79300
C983        C  0.51429841  0.98074257  0.05236956     0.81500
N984        N  0.53277707  0.50814343  0.06948943    -0.81000
C985        C  0.92498346  0.76694656  0.41195512     0.79000
N986        N  0.91382710  0.75151058  0.44630143    -0.79300
C987        C  0.93196319  0.72365604  0.46294026     0.81400
N988        N  0.96122551  0.71255802  0.44541799    -0.79300
C989        C  0.97512239  0.73071691  0.41460650     0.81500
N990        N  0.95664208  0.75811757  0.39749923    -0.81000
C991        C  0.56325096  0.76674598  0.41046405     0.79000
N992        N  0.53132341  0.75809795  0.39669224    -0.79300
C993        C  0.51312268  0.73056984  0.41399873     0.81400
N994        N  0.52760175  0.71205040  0.44421780    -0.79300
C995        C  0.55716683  0.72300227  0.46117711     0.81500
N996        N  0.57499180  0.75099657  0.44437973    -0.81000
C997        C  0.92616238  0.67409704  0.05641277     0.79000
N998        N  0.95808928  0.68275416  0.07017823    -0.79300
C999        C  0.97629132  0.71026701  0.05284884     0.81400
N1000       N  0.96181478  0.72876353  0.02261335    -0.79300
C1001       C  0.93225200  0.71780039  0.00566216     0.81500
N1002       N  0.91442332  0.68981840  0.02247965    -0.81000
C1003       C  0.56443081  0.67389755  0.05492217     0.79000
N1004       N  0.57558498  0.68930533  0.02055883    -0.79300
C1005       C  0.55744541  0.71714665  0.00389794     0.81400
N1006       N  0.52818386  0.72825544  0.02141369    -0.79300
C1007       C  0.51428991  0.71012026  0.05224066     0.81500
N1008       N  0.53277326  0.68273490  0.06937121    -0.81000
O1009       O  0.61045564  0.88290228  0.40819487    -0.75700
O1010       O  0.66400817  0.80821837  0.35763828    -0.75700
O1011       O  0.66400844  0.88276103  0.35770609    -0.75800
O1012       O  0.61045545  0.80799898  0.40813368    -0.75800
O1013       O  0.57388912  0.80816117  0.35776447    -0.75700
O1014       O  0.62750035  0.88298223  0.30728088    -0.75700
O1015       O  0.62750276  0.80806935  0.30721060    -0.75700
O1016       O  0.57388793  0.88279461  0.35782653    -0.75800
Ni1017     Ni  0.63849083  0.84546842  0.38474436     1.25400
Ni1018     Ni  0.59941166  0.84550281  0.33068614     1.25400
C1019       C  0.58343710  0.89517046  0.39131147     0.86500
C1020       C  0.65455017  0.79587568  0.32411587     0.86400
C1021       C  0.65454684  0.89515498  0.32420831     0.86500
C1022       C  0.58343704  0.79574672  0.39123368     0.86600
O1023       O  0.86045209  0.80801301  0.30881026    -0.75700
O1024       O  0.91400678  0.88271312  0.35934457    -0.75700
O1025       O  0.91400731  0.80816949  0.35929272    -0.75800
O1026       O  0.86045054  0.88291598  0.30885816    -0.75800
O1027       O  0.82388526  0.88275770  0.35923168    -0.76100
O1028       O  0.87750085  0.80794997  0.40972267    -0.75700
O1029       O  0.87750314  0.88286604  0.40977754    -0.75700
O1030       O  0.82388420  0.80812202  0.35918175    -0.75800
Ni1031     Ni  0.88848777  0.84545461  0.33225080     1.25400
Ni1032     Ni  0.84941012  0.84542298  0.38631366     1.25400
C1033       C  0.83343284  0.79574452  0.32569759     0.86500
C1034       C  0.90455076  0.89506161  0.39286583     0.86400
C1035       C  0.90454720  0.79577781  0.39279415     0.86500
C1036       C  0.83343182  0.89516735  0.32575848     0.86600
O1037       O  0.66553803  0.63280534  0.10775323    -0.75700
O1038       O  0.61191983  0.55799058  0.05727448    -0.75700
O1039       O  0.61192128  0.63290482  0.05721175    -0.75800
O1040       O  0.66553736  0.55816831  0.10781942    -0.75800
O1041       O  0.62897263  0.55807130  0.15819381    -0.75700
O1042       O  0.57541528  0.63274698  0.10764240    -0.75700
O1043       O  0.57541582  0.55820452  0.10770657    -0.75700
O1044       O  0.62896996  0.63297580  0.15812442    -0.75800
Ni1045     Ni  0.64001286  0.59546553  0.08068003     1.25400
Ni1046     Ni  0.60093540  0.59550068  0.13474302     1.25400
C1047       C  0.65598801  0.64522766  0.14121864     0.86500
C1048       C  0.58487185  0.54581711  0.07420256     0.86400
C1049       C  0.58487278  0.64509457  0.07412300     0.86500
C1050       C  0.65599075  0.54579790  0.14130968     0.86600
O1051       O  0.86190236  0.63291969  0.15972360    -0.75700
O1052       O  0.91551613  0.55812218  0.10922525    -0.75700
O1053       O  0.91551615  0.63275412  0.10917077    -0.75800
O1054       O  0.86190351  0.55800503  0.15977168    -0.75800
O1055       O  0.82539591  0.55816459  0.10934560    -0.75700
O1056       O  0.87895030  0.63285496  0.05880092    -0.75700
O1057       O  0.87894798  0.55795362  0.05885741    -0.75700
O1058       O  0.82539692  0.63270905  0.10929644    -0.75800
Ni1059     Ni  0.88999237  0.59545178  0.13630778     1.25400
Ni1060     Ni  0.85091352  0.59541948  0.08224934     1.25400
C1061       C  0.83485724  0.64509535  0.14279911     0.86500
C1062       C  0.90596805  0.54570606  0.07575669     0.86400
C1063       C  0.90597058  0.64512442  0.07568307     0.86500
C1064       C  0.83485649  0.54581006  0.14285910     0.86600
C1065       C  0.67498355  0.92398776  0.80504656     0.79000
N1066       N  0.70664322  0.93281500  0.81949740    -0.79300
C1067       C  0.72512937  0.96020974  0.80238238     0.81400
N1068       N  0.71123674  0.97836417  0.77156675    -0.79300
C1069       C  0.68196854  0.96726916  0.75405426     0.81500
N1070       N  0.66382751  0.93941948  0.77070139    -0.81000
C1071       C  0.81324692  0.92416329  0.80652164     0.79000
N1072       N  0.78132317  0.93282244  0.82029891    -0.79300
C1073       C  0.76312959  0.96035005  0.80298756     0.81400
N1074       N  0.77761110  0.97885836  0.77276017    -0.79300
C1075       C  0.80716672  0.96789263  0.75579469     0.81500
N1076       N  0.82498605  0.93989902  0.77259494    -0.81000
C1077       C  0.81442282  0.51699586  0.66205222     0.79000
N1078       N  0.82557925  0.00158592  0.69641029    -0.79300
C1079       C  0.80744009  0.97374132  0.71307203     0.81400
N1080       N  0.77817537  0.96263228  0.69556459    -0.79300
C1081       C  0.76428217  0.98076651  0.66473588     0.81500
N1082       N  0.78276646  0.50815285  0.64760517    -0.81000
C1083       C  0.67617309  0.51681942  0.66057833     0.79000
N1084       N  0.70809363  0.50814546  0.64680286    -0.79300
C1085       C  0.72628473  0.98062585  0.66413080     0.81400
N1086       N  0.71180280  0.96213771  0.69437104    -0.79300
C1087       C  0.68225021  0.97311781  0.71133171     0.81500
N1088       N  0.66443327  0.00110653  0.69451667    -0.81000
C1089       C  0.67617141  0.67423622  0.66043662     0.79000
N1090       N  0.66442226  0.69001082  0.69433605    -0.79300
C1091       C  0.68225000  0.71800586  0.71112392     0.81400
N1092       N  0.71182665  0.72893681  0.69417088    -0.79300
C1093       C  0.72631402  0.71038845  0.66397458     0.81500
N1094       N  0.70810814  0.68286055  0.64667560    -0.81000
C1095       C  0.81442676  0.67392659  0.66197169     0.79000
N1096       N  0.82557513  0.68932892  0.69633816    -0.79300
C1097       C  0.80744867  0.71718530  0.71298995     0.81400
N1098       N  0.77820153  0.72831616  0.69546161    -0.79300
C1099       C  0.76431234  0.71019680  0.66462130     0.81500
N1100       N  0.78278369  0.68279340  0.64750205    -0.81000
C1101       C  0.67498639  0.76707366  0.80490354     0.79000
N1102       N  0.70662913  0.75819822  0.81936662    -0.79300
C1103       C  0.72510268  0.73081058  0.80222359     0.81400
N1104       N  0.71121648  0.71271529  0.77136667    -0.79300
C1105       C  0.68197166  0.72385751  0.75384706     0.81500
N1106       N  0.66384047  0.75170039  0.77051967    -0.81000
C1107       C  0.81324322  0.76676428  0.80643923     0.79000
N1108       N  0.78130710  0.75813074  0.82019358    -0.79300
C1109       C  0.76309968  0.73061872  0.80287066     0.81400
N1110       N  0.77758422  0.71209409  0.77265757    -0.79300
C1111       C  0.80715858  0.72303625  0.75571206     0.81500
N1112       N  0.82499045  0.75101870  0.77252176    -0.81000
C1113       C  0.92498844  0.92387061  0.91206855     0.79000
N1114       N  0.95664035  0.93273230  0.89761233    -0.79300
C1115       C  0.97511578  0.96012455  0.91474797     0.81400
N1116       N  0.96122251  0.97824040  0.94558667    -0.79300
C1117       C  0.93196963  0.96710861  0.96310435     0.81500
N1118       N  0.91383638  0.93926124  0.94643968    -0.81000
C1119       C  0.56324966  0.92414746  0.91056976     0.79000
N1120       N  0.57499189  0.93988977  0.94449047    -0.79300
C1121       C  0.55716213  0.96787140  0.96129869     0.81400
N1122       N  0.52759328  0.97881695  0.94434881    -0.79300
C1123       C  0.51311359  0.96030040  0.91412610     0.81500
N1124       N  0.53131942  0.93278763  0.89680641    -0.81000
C1125       C  0.92615741  0.51671215  0.55652952     0.79000
N1126       N  0.95809062  0.50808750  0.57029559    -0.79300
C1127       C  0.97629892  0.98056684  0.55299140     0.81400
N1128       N  0.96181998  0.96203090  0.52278142    -0.79300
C1129       C  0.93224812  0.97296182  0.50582644     0.81500
N1130       N  0.91441560  0.00094838  0.52262096    -0.81000
C1131       C  0.56443122  0.51699035  0.55503092     0.79000
N1132       N  0.57558370  0.00157782  0.52067095    -0.79300
C1133       C  0.55744807  0.97372447  0.50402071     0.81400
N1134       N  0.52819249  0.96260724  0.52154379    -0.79300
C1135       C  0.51429920  0.98074266  0.55236955     0.81500
N1136       N  0.53277698  0.50814331  0.56948934    -0.81000
C1137       C  0.92498363  0.76694637  0.91195523     0.79000
N1138       N  0.91382691  0.75151073  0.94630135    -0.79300
C1139       C  0.93196366  0.72365554  0.96294030     0.81400
N1140       N  0.96122548  0.71255803  0.94541798    -0.79300
C1141       C  0.97512176  0.73071696  0.91460651     0.81500
N1142       N  0.95664222  0.75811753  0.89749922    -0.81000
C1143       C  0.56325104  0.76674638  0.91046347     0.79000
N1144       N  0.53132328  0.75809779  0.89669226    -0.79300
C1145       C  0.51312278  0.73056958  0.91399901     0.81400
N1146       N  0.52760199  0.71205055  0.94421779    -0.79300
C1147       C  0.55716604  0.72300171  0.96117714     0.81500
N1148       N  0.57499209  0.75099668  0.94438007    -0.81000
C1149       C  0.92616177  0.67409700  0.55641235     0.79000
N1150       N  0.95808918  0.68275400  0.57017841    -0.79300
C1151       C  0.97629224  0.71026760  0.55284873     0.81400
N1152       N  0.96181454  0.72876351  0.52261340    -0.79300
C1153       C  0.93225182  0.71780004  0.50566215     0.81500
N1154       N  0.91442373  0.68981867  0.52247983    -0.81000
C1155       C  0.56443088  0.67389775  0.55492181     0.79000
N1156       N  0.57558510  0.68930506  0.52055898    -0.79300
C1157       C  0.55744495  0.71714668  0.50389810     0.81400
N1158       N  0.52818397  0.72825548  0.52141346    -0.79300
C1159       C  0.51429027  0.71012028  0.55224062     0.81500
N1160       N  0.53277308  0.68273490  0.56937128    -0.81000
O1161       O  0.61045561  0.88290225  0.90819504    -0.75700
O1162       O  0.66400805  0.80821843  0.85763848    -0.75700
O1163       O  0.66400840  0.88276107  0.85770605    -0.75800
O1164       O  0.61045562  0.80799916  0.90813368    -0.75800
O1165       O  0.57388919  0.80816125  0.85776446    -0.75700
O1166       O  0.62750039  0.88298215  0.80728082    -0.75700
O1167       O  0.62750259  0.80806941  0.80721066    -0.75700
O1168       O  0.57388799  0.88279462  0.85782657    -0.75800
Ni1169     Ni  0.63849077  0.84546839  0.88474442     1.25400
Ni1170     Ni  0.59941172  0.84550274  0.83068612     1.25400
C1171       C  0.58343698  0.89517045  0.89131128     0.86500
C1172       C  0.65455071  0.79587515  0.82411585     0.86400
C1173       C  0.65454693  0.89515486  0.82420861     0.86500
C1174       C  0.58343641  0.79574625  0.89123368     0.86600
O1175       O  0.86045246  0.80801328  0.80881030    -0.75700
O1176       O  0.91400680  0.88271330  0.85934468    -0.75700
O1177       O  0.91400722  0.80816939  0.85929287    -0.75800
O1178       O  0.86045041  0.88291595  0.80885817    -0.75800
O1179       O  0.82388524  0.88275773  0.85923171    -0.76100
O1180       O  0.87750080  0.80794994  0.90972283    -0.75700
O1181       O  0.87750332  0.88286610  0.90977767    -0.75700
O1182       O  0.82388437  0.80812223  0.85918198    -0.75800
Ni1183     Ni  0.88848772  0.84545457  0.83225081     1.25400
Ni1184     Ni  0.84941008  0.84542292  0.88631372     1.25400
C1185       C  0.83343212  0.79574351  0.82569711     0.86500
C1186       C  0.90455017  0.89506111  0.89286580     0.86400
C1187       C  0.90454722  0.79577793  0.89279384     0.86500
C1188       C  0.83343209  0.89516726  0.82575835     0.86600
O1189       O  0.66553814  0.63280538  0.60775341    -0.75700
O1190       O  0.61192000  0.55799068  0.55727449    -0.75700
O1191       O  0.61192141  0.63290473  0.55721190    -0.75800
O1192       O  0.66553750  0.55816813  0.60781959    -0.75800
O1193       O  0.62897292  0.55807103  0.65819385    -0.75700
O1194       O  0.57541547  0.63274676  0.60764281    -0.75700
O1195       O  0.57541593  0.55820451  0.60770674    -0.75700
O1196       O  0.62897012  0.63297590  0.65812454    -0.75800
Ni1197     Ni  0.64001285  0.59546550  0.58068009     1.25400
Ni1198     Ni  0.60093542  0.59550066  0.63474299     1.25400
C1199       C  0.65598772  0.64522715  0.64121835     0.86500
C1200       C  0.58487167  0.54581662  0.57420209     0.86400
C1201       C  0.58487285  0.64509508  0.57412218     0.86500
C1202       C  0.65598990  0.54579855  0.64130966     0.86600
O1203       O  0.86190250  0.63291948  0.65972357    -0.75700
O1204       O  0.91551623  0.55812207  0.60922501    -0.75700
O1205       O  0.91551626  0.63275403  0.60917091    -0.75800
O1206       O  0.86190332  0.55800488  0.65977155    -0.75800
O1207       O  0.82539589  0.55816469  0.60934534    -0.75700
O1208       O  0.87895050  0.63285500  0.55880099    -0.75700
O1209       O  0.87894804  0.55795350  0.55885727    -0.75700
O1210       O  0.82539705  0.63270893  0.60929630    -0.75800
Ni1211     Ni  0.88999244  0.59545177  0.63630769     1.25400
Ni1212     Ni  0.85091355  0.59541944  0.58224930     1.25400
C1213       C  0.83485696  0.64509574  0.64279951     0.86500
C1214       C  0.90596790  0.54570648  0.57575708     0.86400
C1215       C  0.90597048  0.64512449  0.57568272     0.86500
C1216       C  0.83485711  0.54581009  0.64285996     0.86600
loop_ 
_geom_bond_atom_site_label_1 
_geom_bond_atom_site_label_2 
_geom_bond_distance 
_geom_bond_site_symmetry_2 
_ccdc_geom_bond_type 
C1            N2   1.369       .  A
C1            N6   1.368       .  A
C1          C109   1.468       .  S
N2            C3   1.359       .  A
C3            N4   1.352       .  A
C3            C9   1.484       .  S
N4            C5   1.351       .  A
C5            N6   1.357       .  A
C5           C23   1.470       .  S
C7            N8   1.369       .  A
C7           N12   1.367       .  A
C7          C124   1.468       .  S
N8            C9   1.359       .  A
C9           N10   1.352       .  A
N10          C11   1.351       .  A
C11          N12   1.357       .  A
C11          C15   1.470       .  S
C13          N18   1.369       .  A
C13         N318   1.368       .  A
C13         C152   1.468       .  S
N14          C15   1.357       .  A
N14         C317   1.368       .  A
C15          N16   1.350       .  A
N16          C17   1.352       .  A
C17         N322   1.359       .  A
C17          C21   1.484       .  S
N18         C321   1.359   1_545  A
C19          N20   1.369       .  A
C19         N328   1.367       .  A
C19         C138   1.468       .  S
N20         C325   1.359   1_545  A
C21          N22   1.352       .  A
C21         N324   1.359       .  A
N22          C23   1.351       .  A
C23          N24   1.357       .  A
N24         C323   1.367       .  A
C25          N26   1.367       .  A
C25          N30   1.368       .  A
C25         C135   1.468       .  S
N26          C27   1.357       .  A
C27          N28   1.351       .  A
C27          C41   1.470       .  S
N28          C29   1.353       .  A
C29          N30   1.359       .  A
C29          C35   1.484       .  S
C31          N32   1.368       .  A
C31          N36   1.369       .  A
C31         C149   1.468       .  S
N32          C33   1.357       .  A
C33          N34   1.350       .  A
C33          C47   1.470       .  S
N34          C35   1.352       .  A
C35          N36   1.359       .  A
C37          N38   1.369       .  A
C37          N42   1.368       .  A
C37         C108   1.468       .  S
N38          C39   1.359       .  A
C39          N40   1.352       .  A
C39          C45   1.484       .  S
N40          C41   1.350       .  A
C41          N42   1.357       .  A
C43          N44   1.368       .  A
C43          N48   1.367       .  A
C43         C121   1.468       .  S
N44          C45   1.359       .  A
C45          N46   1.352       .  A
N46          C47   1.351       .  A
C47          N48   1.357       .  A
C49          N50   1.369       .  A
C49          N54   1.368       .  A
C49         C122   1.468       .  S
N50          C51   1.359       .  A
C51          N52   1.352       .  A
C51         C667   1.484       .  S
N52          C53   1.350       .  A
C53          N54   1.357       .  A
C53         C217   1.470       .  S
C55          N56   1.367       .  A
C55          N60   1.368       .  A
C55         C107   1.468       .  S
N56          C57   1.357       .  A
C57          N58   1.351       .  A
C57         C221   1.470       .  S
N58          C59   1.352       .  A
C59          N60   1.359       .  A
C59         C659   1.484   1_455  S
C61          N62   1.369       .  A
C61         N370   1.367       .  A
C61         C150   1.468       .  S
N62         C367   1.359   1_545  A
C63          N64   1.352       .  A
C63         N366   1.359       .  A
C63         C679   1.484       .  S
N64          C65   1.351       .  A
C65          N66   1.357       .  A
C65         C205   1.470   1_554  S
N66         C365   1.367       .  A
C67          N72   1.369       .  A
C67         N372   1.368       .  A
C67         C136   1.468       .  S
N68          C69   1.357       .  A
N68         C371   1.368       .  A
C69          N70   1.350       .  A
C69         C209   1.470   1_554  S
N70          C71   1.352       .  A
C71         N376   1.359       .  A
C71         C671   1.484   1_455  S
N72         C375   1.359   1_545  A
C73          N74   1.368       .  A
C73          N78   1.369       .  A
C73         C123   1.468       .  S
N74          C75   1.357       .  A
C75          N76   1.350       .  A
C75         C241   1.470       .  S
N76          C77   1.352       .  A
C77          N78   1.359       .  A
C77         C689   1.484       .  S
C79          N80   1.369       .  A
C79          N84   1.367       .  A
C79         C110   1.468       .  S
N80          C81   1.359       .  A
C81          N82   1.353       .  A
C81         C685   1.484   1_455  S
N82          C83   1.351       .  A
C83          N84   1.357       .  A
C83         C245   1.470       .  S
C85          N86   1.369       .  A
C85          N90   1.367       .  A
C85         C151   1.468       .  S
N86          C87   1.359       .  A
C87          N88   1.352       .  A
C87         C703   1.484       .  S
N88          C89   1.351       .  A
C89          N90   1.357       .  A
C89         C227   1.470   1_554  S
C91          N92   1.368       .  A
C91          N96   1.369       .  A
C91         C137   1.468       .  S
N92          C93   1.357       .  A
C93          N94   1.350       .  A
C93         C235   1.470   1_554  S
N94          C95   1.352       .  A
C95          N96   1.359       .  A
C95         C695   1.484   1_455  S
O97        Ni105   1.918       .  S
O97         C107   1.281       .  A
O98        Ni105   1.915       .  S
O98         C108   1.280       .  A
O99        Ni105   1.915       .  S
O99         C109   1.280       .  A
O100       Ni105   1.918       .  S
O100        C110   1.281       .  A
O101       Ni106   1.917       .  S
O101        C110   1.281       .  A
O102       Ni106   1.919       .  S
O102        C109   1.282       .  A
O103       Ni106   1.919       .  S
O103        C108   1.282       .  A
O104       Ni106   1.917       .  S
O104        C107   1.281       .  A
Ni105      Ni106   2.391       .  S
O111       Ni119   1.918       .  S
O111        C121   1.281       .  A
O112       Ni119   1.915       .  S
O112        C122   1.280       .  A
O113       Ni119   1.915       .  S
O113        C123   1.280       .  A
O114       Ni119   1.918       .  S
O114        C124   1.281       .  A
O115       Ni120   1.917       .  S
O115        C124   1.281       .  A
O116       Ni120   1.919       .  S
O116        C123   1.282       .  A
O117       Ni120   1.919       .  S
O117        C122   1.282       .  A
O118       Ni120   1.917       .  S
O118        C121   1.281       .  A
Ni119      Ni120   2.391       .  S
O125       Ni133   1.917       .  S
O125        C135   1.281       .  A
O126       Ni133   1.919       .  S
O126        C136   1.282       .  A
O127       Ni133   1.919       .  S
O127        C137   1.282       .  A
O128       Ni133   1.917       .  S
O128        C138   1.281       .  A
O129       Ni134   1.918       .  S
O129        C138   1.281       .  A
O130       Ni134   1.915       .  S
O130        C137   1.280       .  A
O131       Ni134   1.915       .  S
O131        C136   1.280       .  A
O132       Ni134   1.918       .  S
O132        C135   1.281       .  A
Ni133      Ni134   2.391       .  S
O139       Ni147   1.919       .  S
O139        C149   1.282       .  A
O140       Ni147   1.917       .  S
O140        C150   1.281       .  A
O141       Ni147   1.917       .  S
O141        C151   1.281       .  A
O142       Ni147   1.919       .  S
O142        C152   1.282       .  A
O143       Ni148   1.915       .  S
O143        C152   1.280       .  A
O144       Ni148   1.918       .  S
O144        C151   1.281       .  A
O145       Ni148   1.918       .  S
O145        C150   1.281       .  A
O146       Ni148   1.915       .  S
O146        C149   1.280       .  A
Ni147      Ni148   2.391       .  S
C153        N154   1.369       .  A
C153        N158   1.368       .  A
C153        C261   1.468       .  S
N154        C155   1.359       .  A
C155        N156   1.352       .  A
C155        C161   1.484       .  S
N156        C157   1.350       .  A
C157        N158   1.357       .  A
C157        C175   1.470       .  S
C159        N160   1.369       .  A
C159        N164   1.367       .  A
C159        C276   1.468       .  S
N160        C161   1.359       .  A
C161        N162   1.352       .  A
N162        C163   1.351       .  A
C163        N164   1.357       .  A
C163        C167   1.470       .  S
C165        N470   1.368       .  A
C165        N170   1.369       .  A
C165        C304   1.468       .  S
N166        C469   1.368       .  A
N166        C167   1.357       .  A
C167        N168   1.350       .  A
N168        C169   1.352       .  A
C169        N474   1.359       .  A
C169        C173   1.484       .  S
N170        C473   1.359   1_545  A
C171        N172   1.369       .  A
C171        N480   1.367       .  A
C171        C290   1.468       .  S
N172        C477   1.359   1_545  A
C173        N476   1.359       .  A
C173        N174   1.352       .  A
N174        C175   1.350       .  A
C175        N176   1.357       .  A
N176        C475   1.367       .  A
C177        N178   1.367       .  A
C177        N182   1.368       .  A
C177        C287   1.468       .  S
N178        C179   1.357       .  A
C179        N180   1.351       .  A
C179        C193   1.470       .  S
N180        C181   1.353       .  A
C181        N182   1.359       .  A
C181        C187   1.484       .  S
C183        N184   1.368       .  A
C183        N188   1.369       .  A
C183        C301   1.468       .  S
N184        C185   1.357       .  A
C185        N186   1.350       .  A
C185        C199   1.470       .  S
N186        C187   1.352       .  A
C187        N188   1.359       .  A
C189        N190   1.369       .  A
C189        N194   1.368       .  A
C189        C260   1.468       .  S
N190        C191   1.359       .  A
C191        N192   1.352       .  A
C191        C197   1.484       .  S
N192        C193   1.350       .  A
C193        N194   1.357       .  A
C195        N196   1.368       .  A
C195        N200   1.367       .  A
C195        C273   1.468       .  S
N196        C197   1.359       .  A
C197        N198   1.352       .  A
N198        C199   1.351       .  A
C199        N200   1.357       .  A
C201        N202   1.369       .  A
C201        N206   1.368       .  A
C201        C274   1.468       .  S
N202        C203   1.359       .  A
C203        N204   1.352       .  A
C203        C819   1.484       .  S
N204        C205   1.350       .  A
C205        N206   1.357       .  A
C207        N208   1.367       .  A
C207        N212   1.368       .  A
C207        C259   1.468       .  S
N208        C209   1.357       .  A
C209        N210   1.351       .  A
N210        C211   1.352       .  A
C211        N212   1.359       .  A
C211        C811   1.484   1_455  S
C213        N214   1.368       .  A
C213        N522   1.367       .  A
C213        C302   1.468       .  S
N214        C519   1.359   1_545  A
C215        N518   1.359       .  A
C215        N216   1.352       .  A
C215        C831   1.484       .  S
N216        C217   1.351       .  A
C217        N218   1.357       .  A
N218        C517   1.367       .  A
C219        N524   1.368       .  A
C219        N224   1.369       .  A
C219        C288   1.468       .  S
N220        C523   1.368       .  A
N220        C221   1.357       .  A
C221        N222   1.350       .  A
N222        C223   1.352       .  A
C223        N528   1.359       .  A
C223        C823   1.484   1_455  S
N224        C527   1.359   1_545  A
C225        N226   1.368       .  A
C225        N230   1.369       .  A
C225        C275   1.468       .  S
N226        C227   1.357       .  A
C227        N228   1.350       .  A
N228        C229   1.352       .  A
C229        N230   1.359       .  A
C229        C841   1.484       .  S
C231        N232   1.369       .  A
C231        N236   1.367       .  A
C231        C262   1.468       .  S
N232        C233   1.359       .  A
C233        N234   1.352       .  A
C233        C837   1.484   1_455  S
N234        C235   1.351       .  A
C235        N236   1.357       .  A
C237        N238   1.369       .  A
C237        N242   1.367       .  A
C237        C303   1.468       .  S
N238        C239   1.359       .  A
C239        N240   1.352       .  A
C239        C855   1.484       .  S
N240        C241   1.351       .  A
C241        N242   1.357       .  A
C243        N244   1.368       .  A
C243        N248   1.369       .  A
C243        C289   1.468       .  S
N244        C245   1.357       .  A
C245        N246   1.350       .  A
N246        C247   1.352       .  A
C247        N248   1.359       .  A
C247        C847   1.484   1_455  S
O249       Ni257   1.918       .  S
O249        C259   1.281       .  A
O250       Ni257   1.915       .  S
O250        C260   1.280       .  A
O251       Ni257   1.915       .  S
O251        C261   1.280       .  A
O252       Ni257   1.918       .  S
O252        C262   1.281       .  A
O253       Ni258   1.917       .  S
O253        C262   1.281       .  A
O254       Ni258   1.919       .  S
O254        C261   1.282       .  A
O255       Ni258   1.919       .  S
O255        C260   1.282       .  A
O256       Ni258   1.917       .  S
O256        C259   1.281       .  A
Ni257      Ni258   2.391       .  S
O263       Ni271   1.918       .  S
O263        C273   1.281       .  A
O264       Ni271   1.915       .  S
O264        C274   1.280       .  A
O265       Ni271   1.915       .  S
O265        C275   1.280       .  A
O266       Ni271   1.918       .  S
O266        C276   1.281       .  A
O267       Ni272   1.917       .  S
O267        C276   1.281       .  A
O268       Ni272   1.919       .  S
O268        C275   1.282       .  A
O269       Ni272   1.919       .  S
O269        C274   1.282       .  A
O270       Ni272   1.917       .  S
O270        C273   1.281       .  A
Ni271      Ni272   2.391       .  S
O277       Ni285   1.917       .  S
O277        C287   1.281       .  A
O278       Ni285   1.919       .  S
O278        C288   1.282       .  A
O279       Ni285   1.919       .  S
O279        C289   1.282       .  A
O280       Ni285   1.917       .  S
O280        C290   1.281       .  A
O281       Ni286   1.918       .  S
O281        C290   1.281       .  A
O282       Ni286   1.915       .  S
O282        C289   1.280       .  A
O283       Ni286   1.915       .  S
O283        C288   1.280       .  A
O284       Ni286   1.918       .  S
O284        C287   1.281       .  A
Ni285      Ni286   2.391       .  S
O291       Ni299   1.919       .  S
O291        C301   1.282       .  A
O292       Ni299   1.917       .  S
O292        C302   1.281       .  A
O293       Ni299   1.917       .  S
O293        C303   1.281       .  A
O294       Ni299   1.919       .  S
O294        C304   1.282       .  A
O295       Ni300   1.915       .  S
O295        C304   1.280       .  A
O296       Ni300   1.918       .  S
O296        C303   1.281       .  A
O297       Ni300   1.918       .  S
O297        C302   1.281       .  A
O298       Ni300   1.915       .  S
O298        C301   1.280       .  A
Ni299      Ni300   2.391       .  S
C305        N306   1.369       .  A
C305        N310   1.368       .  A
C305        C413   1.468       .  S
N306        C307   1.359       .  A
C307        N308   1.352       .  A
C307        C313   1.484       .  S
N308        C309   1.350       .  A
C309        N310   1.357       .  A
C309        C327   1.470       .  S
C311        N312   1.369       .  A
C311        N316   1.367       .  A
C311        C428   1.468       .  S
N312        C313   1.359       .  A
C313        N314   1.352       .  A
N314        C315   1.351       .  A
C315        N316   1.357       .  A
C315        C319   1.470       .  S
C317        N322   1.369       .  A
C317        C456   1.468       .  S
N318        C319   1.357   1_545  A
C319        N320   1.350       .  A
N320        C321   1.352       .  A
C321        C325   1.484       .  S
C323        N324   1.369       .  A
C323        C442   1.468       .  S
C325        N326   1.352       .  A
N326        C327   1.351       .  A
C327        N328   1.357   1_565  A
C329        N330   1.367       .  A
C329        N334   1.369       .  A
C329        C439   1.468       .  S
N330        C331   1.357       .  A
C331        N332   1.351       .  A
C331        C345   1.470       .  S
N332        C333   1.353       .  A
C333        N334   1.359       .  A
C333        C339   1.484       .  S
C335        N336   1.368       .  A
C335        N340   1.369       .  A
C335        C453   1.468       .  S
N336        C337   1.357       .  A
C337        N338   1.350       .  A
C337        C351   1.470       .  S
N338        C339   1.352       .  A
C339        N340   1.359       .  A
C341        N342   1.369       .  A
C341        N346   1.368       .  A
C341        C412   1.468       .  S
N342        C343   1.359       .  A
C343        N344   1.352       .  A
C343        C349   1.484       .  S
N344        C345   1.350       .  A
C345        N346   1.357       .  A
C347        N348   1.368       .  A
C347        N352   1.367       .  A
C347        C425   1.468       .  S
N348        C349   1.359       .  A
C349        N350   1.352       .  A
N350        C351   1.351       .  A
C351        N352   1.357       .  A
C353        N354   1.369       .  A
C353        N358   1.368       .  A
C353        C426   1.468       .  S
N354        C355   1.359       .  A
C355        N356   1.352       .  A
C355        C971   1.484       .  S
N356        C357   1.350       .  A
C357        N358   1.357       .  A
C357        C521   1.470       .  S
C359        N360   1.367       .  A
C359        N364   1.369       .  A
C359        C411   1.468       .  S
N360        C361   1.357       .  A
C361        N362   1.351       .  A
C361        C525   1.470       .  S
N362        C363   1.352       .  A
C363        N364   1.359       .  A
C363        C963   1.484   1_455  S
C365        N366   1.369       .  A
C365        C454   1.468       .  S
C367        N368   1.352       .  A
C367        C983   1.484       .  S
N368        C369   1.351       .  A
C369        N370   1.357   1_565  A
C369        C509   1.470   1_554  S
C371        N376   1.369       .  A
C371        C440   1.468       .  S
N372        C373   1.357   1_545  A
C373        N374   1.350       .  A
C373        C513   1.470   1_554  S
N374        C375   1.352       .  A
C375        C975   1.484   1_455  S
C377        N378   1.368       .  A
C377        N382   1.369       .  A
C377        C427   1.468       .  S
N378        C379   1.357       .  A
C379        N380   1.350       .  A
C379        C545   1.470       .  S
N380        C381   1.352       .  A
C381        N382   1.359       .  A
C381        C993   1.484       .  S
C383        N384   1.369       .  A
C383        N388   1.367       .  A
C383        C414   1.468       .  S
N384        C385   1.359       .  A
C385        N386   1.353       .  A
C385        C989   1.484   1_455  S
N386        C387   1.351       .  A
C387        N388   1.357       .  A
C387        C549   1.470       .  S
C389        N390   1.369       .  A
C389        N394   1.368       .  A
C389        C455   1.468       .  S
N390        C391   1.359       .  A
C391        N392   1.352       .  A
C391       C1007   1.484       .  S
N392        C393   1.351       .  A
C393        N394   1.357       .  A
C393        C531   1.470   1_554  S
C395        N396   1.368       .  A
C395        N400   1.369       .  A
C395        C441   1.468       .  S
N396        C397   1.357       .  A
C397        N398   1.350       .  A
C397        C539   1.470   1_554  S
N398        C399   1.352       .  A
C399        N400   1.359       .  A
C399        C999   1.484   1_455  S
O401       Ni409   1.918       .  S
O401        C411   1.281       .  A
O402       Ni409   1.915       .  S
O402        C412   1.280       .  A
O403       Ni409   1.915       .  S
O403        C413   1.280       .  A
O404       Ni409   1.918       .  S
O404        C414   1.281       .  A
O405       Ni410   1.917       .  S
O405        C414   1.281       .  A
O406       Ni410   1.919       .  S
O406        C413   1.282       .  A
O407       Ni410   1.919       .  S
O407        C412   1.282       .  A
O408       Ni410   1.917       .  S
O408        C411   1.281       .  A
Ni409      Ni410   2.391       .  S
O415       Ni423   1.918       .  S
O415        C425   1.281       .  A
O416       Ni423   1.915       .  S
O416        C426   1.280       .  A
O417       Ni423   1.915       .  S
O417        C427   1.280       .  A
O418       Ni423   1.918       .  S
O418        C428   1.281       .  A
O419       Ni424   1.917       .  S
O419        C428   1.281       .  A
O420       Ni424   1.919       .  S
O420        C427   1.282       .  A
O421       Ni424   1.919       .  S
O421        C426   1.282       .  A
O422       Ni424   1.917       .  S
O422        C425   1.281       .  A
Ni423      Ni424   2.391       .  S
O429       Ni437   1.917       .  S
O429        C439   1.281       .  A
O430       Ni437   1.919       .  S
O430        C440   1.282       .  A
O431       Ni437   1.919       .  S
O431        C441   1.282       .  A
O432       Ni437   1.917       .  S
O432        C442   1.281       .  A
O433       Ni438   1.918       .  S
O433        C442   1.281       .  A
O434       Ni438   1.915       .  S
O434        C441   1.280       .  A
O435       Ni438   1.915       .  S
O435        C440   1.280       .  A
O436       Ni438   1.918       .  S
O436        C439   1.281       .  A
Ni437      Ni438   2.391       .  S
O443       Ni451   1.919       .  S
O443        C453   1.282       .  A
O444       Ni451   1.917       .  S
O444        C454   1.281       .  A
O445       Ni451   1.917       .  S
O445        C455   1.281       .  A
O446       Ni451   1.919       .  S
O446        C456   1.282       .  A
O447       Ni452   1.915       .  S
O447        C456   1.280       .  A
O448       Ni452   1.918       .  S
O448        C455   1.281       .  A
O449       Ni452   1.918       .  S
O449        C454   1.281       .  A
O450       Ni452   1.915       .  S
O450        C453   1.280       .  A
Ni451      Ni452   2.391       .  S
C457        N458   1.369       .  A
C457        N462   1.368       .  A
C457        C565   1.468       .  S
N458        C459   1.359       .  A
C459        N460   1.352       .  A
C459        C465   1.484       .  S
N460        C461   1.351       .  A
C461        N462   1.357       .  A
C461        C479   1.470       .  S
C463        N464   1.369       .  A
C463        N468   1.367       .  A
C463        C580   1.468       .  S
N464        C465   1.359       .  A
C465        N466   1.352       .  A
N466        C467   1.351       .  A
C467        N468   1.357       .  A
C467        C471   1.470       .  S
C469        N474   1.369       .  A
C469        C608   1.468       .  S
N470        C471   1.357   1_545  A
C471        N472   1.350       .  A
N472        C473   1.352       .  A
C473        C477   1.484       .  S
C475        N476   1.369       .  A
C475        C594   1.468       .  S
C477        N478   1.352       .  A
N478        C479   1.351       .  A
C479        N480   1.357   1_565  A
C481        N482   1.367       .  A
C481        N486   1.368       .  A
C481        C591   1.468       .  S
N482        C483   1.357       .  A
C483        N484   1.351       .  A
C483        C497   1.470       .  S
N484        C485   1.353       .  A
C485        N486   1.359       .  A
C485        C491   1.484       .  S
C487        N488   1.368       .  A
C487        N492   1.369       .  A
C487        C605   1.468       .  S
N488        C489   1.357       .  A
C489        N490   1.350       .  A
C489        C503   1.470       .  S
N490        C491   1.352       .  A
C491        N492   1.359       .  A
C493        N494   1.369       .  A
C493        N498   1.368       .  A
C493        C564   1.468       .  S
N494        C495   1.359       .  A
C495        N496   1.352       .  A
C495        C501   1.484       .  S
N496        C497   1.350       .  A
C497        N498   1.357       .  A
C499        N500   1.368       .  A
C499        N504   1.367       .  A
C499        C577   1.468       .  S
N500        C501   1.359       .  A
C501        N502   1.352       .  A
N502        C503   1.351       .  A
C503        N504   1.357       .  A
C505        N506   1.369       .  A
C505        N510   1.368       .  A
C505        C578   1.468       .  S
N506        C507   1.359       .  A
C507        N508   1.352       .  A
C507       C1123   1.484       .  S
N508        C509   1.350       .  A
C509        N510   1.357       .  A
C511        N512   1.367       .  A
C511        N516   1.369       .  A
C511        C563   1.468       .  S
N512        C513   1.357       .  A
C513        N514   1.351       .  A
N514        C515   1.352       .  A
C515        N516   1.359       .  A
C515       C1115   1.484   1_455  S
C517        N518   1.369       .  A
C517        C606   1.468       .  S
C519        N520   1.352       .  A
C519       C1135   1.484       .  S
N520        C521   1.351       .  A
C521        N522   1.357   1_565  A
C523        N528   1.369       .  A
C523        C592   1.468       .  S
N524        C525   1.357   1_545  A
C525        N526   1.350       .  A
N526        C527   1.352       .  A
C527       C1127   1.484   1_455  S
C529        N530   1.368       .  A
C529        N534   1.369       .  A
C529        C579   1.468       .  S
N530        C531   1.357       .  A
C531        N532   1.350       .  A
N532        C533   1.352       .  A
C533        N534   1.359       .  A
C533       C1145   1.484       .  S
C535        N536   1.369       .  A
C535        N540   1.367       .  A
C535        C566   1.468       .  S
N536        C537   1.359       .  A
C537        N538   1.352       .  A
C537       C1141   1.484   1_455  S
N538        C539   1.351       .  A
C539        N540   1.357       .  A
C541        N542   1.368       .  A
C541        N546   1.367       .  A
C541        C607   1.468       .  S
N542        C543   1.359       .  A
C543        N544   1.352       .  A
C543       C1159   1.484       .  S
N544        C545   1.351       .  A
C545        N546   1.357       .  A
C547        N548   1.368       .  A
C547        N552   1.369       .  A
C547        C593   1.468       .  S
N548        C549   1.357       .  A
C549        N550   1.350       .  A
N550        C551   1.352       .  A
C551        N552   1.359       .  A
C551       C1151   1.484   1_455  S
O553       Ni561   1.918       .  S
O553        C563   1.281       .  A
O554       Ni561   1.915       .  S
O554        C564   1.280       .  A
O555       Ni561   1.915       .  S
O555        C565   1.280       .  A
O556       Ni561   1.918       .  S
O556        C566   1.281       .  A
O557       Ni562   1.917       .  S
O557        C566   1.281       .  A
O558       Ni562   1.919       .  S
O558        C565   1.282       .  A
O559       Ni562   1.919       .  S
O559        C564   1.282       .  A
O560       Ni562   1.917       .  S
O560        C563   1.281       .  A
Ni561      Ni562   2.391       .  S
O567       Ni575   1.918       .  S
O567        C577   1.281       .  A
O568       Ni575   1.915       .  S
O568        C578   1.280       .  A
O569       Ni575   1.915       .  S
O569        C579   1.280       .  A
O570       Ni575   1.918       .  S
O570        C580   1.281       .  A
O571       Ni576   1.917       .  S
O571        C580   1.281       .  A
O572       Ni576   1.919       .  S
O572        C579   1.282       .  A
O573       Ni576   1.919       .  S
O573        C578   1.282       .  A
O574       Ni576   1.917       .  S
O574        C577   1.281       .  A
Ni575      Ni576   2.391       .  S
O581       Ni589   1.917       .  S
O581        C591   1.281       .  A
O582       Ni589   1.919       .  S
O582        C592   1.282       .  A
O583       Ni589   1.919       .  S
O583        C593   1.282       .  A
O584       Ni589   1.917       .  S
O584        C594   1.281       .  A
O585       Ni590   1.918       .  S
O585        C594   1.281       .  A
O586       Ni590   1.915       .  S
O586        C593   1.280       .  A
O587       Ni590   1.915       .  S
O587        C592   1.280       .  A
O588       Ni590   1.918       .  S
O588        C591   1.281       .  A
Ni589      Ni590   2.391       .  S
O595       Ni603   1.919       .  S
O595        C605   1.282       .  A
O596       Ni603   1.917       .  S
O596        C606   1.281       .  A
O597       Ni603   1.917       .  S
O597        C607   1.281       .  A
O598       Ni603   1.919       .  S
O598        C608   1.282       .  A
O599       Ni604   1.915       .  S
O599        C608   1.280       .  A
O600       Ni604   1.918       .  S
O600        C607   1.281       .  A
O601       Ni604   1.918       .  S
O601        C606   1.281       .  A
O602       Ni604   1.915       .  S
O602        C605   1.280       .  A
Ni603      Ni604   2.391       .  S
C609        N610   1.369       .  A
C609        N614   1.368       .  A
C609        C717   1.468       .  S
N610        C611   1.359       .  A
C611        N612   1.352       .  A
C611        C617   1.484       .  S
N612        C613   1.350       .  A
C613        N614   1.357       .  A
C613        C631   1.470       .  S
C615        N616   1.369       .  A
C615        N620   1.367       .  A
C615        C732   1.468       .  S
N616        C617   1.359       .  A
C617        N618   1.352       .  A
N618        C619   1.351       .  A
C619        N620   1.357       .  A
C619        C623   1.470       .  S
C621        N926   1.368       .  A
C621        N626   1.369       .  A
C621        C760   1.468       .  S
N622        C925   1.368       .  A
N622        C623   1.357       .  A
C623        N624   1.350       .  A
N624        C625   1.352       .  A
C625        N930   1.359       .  A
C625        C629   1.484       .  S
N626        C929   1.359   1_545  A
C627        N628   1.369       .  A
C627        N936   1.367       .  A
C627        C746   1.468       .  S
N628        C933   1.359   1_545  A
C629        N932   1.359       .  A
C629        N630   1.352       .  A
N630        C631   1.351       .  A
C631        N632   1.357       .  A
N632        C931   1.367       .  A
C633        N634   1.367       .  A
C633        N638   1.368       .  A
C633        C743   1.468       .  S
N634        C635   1.357       .  A
C635        N636   1.351       .  A
C635        C649   1.470       .  S
N636        C637   1.353       .  A
C637        N638   1.359       .  A
C637        C643   1.484       .  S
C639        N640   1.368       .  A
C639        N644   1.369       .  A
C639        C757   1.468       .  S
N640        C641   1.357       .  A
C641        N642   1.350       .  A
C641        C655   1.470       .  S
N642        C643   1.352       .  A
C643        N644   1.359       .  A
C645        N646   1.369       .  A
C645        N650   1.368       .  A
C645        C716   1.468       .  S
N646        C647   1.359       .  A
C647        N648   1.352       .  A
C647        C653   1.484       .  S
N648        C649   1.350       .  A
C649        N650   1.357       .  A
C651        N652   1.368       .  A
C651        N656   1.367       .  A
C651        C729   1.468       .  S
N652        C653   1.359       .  A
C653        N654   1.352       .  A
N654        C655   1.351       .  A
C655        N656   1.357       .  A
C657        N658   1.369       .  A
C657        N662   1.368       .  A
C657        C730   1.468       .  S
N658        C659   1.359       .  A
C659        N660   1.352       .  A
N660        C661   1.350       .  A
C661        N662   1.357       .  A
C661        C825   1.470       .  S
C663        N664   1.367       .  A
C663        N668   1.369       .  A
C663        C715   1.468       .  S
N664        C665   1.357       .  A
C665        N666   1.351       .  A
C665        C829   1.470       .  S
N666        C667   1.352       .  A
C667        N668   1.359       .  A
C669        N670   1.368       .  A
C669        N978   1.367       .  A
C669        C758   1.468       .  S
N670        C975   1.359   1_545  A
C671        N974   1.359       .  A
C671        N672   1.352       .  A
N672        C673   1.351       .  A
C673        N674   1.357       .  A
C673        C813   1.470   1_554  S
N674        C973   1.367       .  A
C675        N980   1.368       .  A
C675        N680   1.369       .  A
C675        C744   1.468       .  S
N676        C979   1.368       .  A
N676        C677   1.357       .  A
C677        N678   1.350       .  A
C677        C817   1.470   1_554  S
N678        C679   1.352       .  A
C679        N984   1.359       .  A
N680        C983   1.359   1_545  A
C681        N682   1.368       .  A
C681        N686   1.369       .  A
C681        C731   1.468       .  S
N682        C683   1.357       .  A
C683        N684   1.350       .  A
C683        C849   1.470       .  S
N684        C685   1.352       .  A
C685        N686   1.359       .  A
C687        N688   1.369       .  A
C687        N692   1.367       .  A
C687        C718   1.468       .  S
N688        C689   1.359       .  A
C689        N690   1.352       .  A
N690        C691   1.351       .  A
C691        N692   1.357       .  A
C691        C853   1.470       .  S
C693        N694   1.369       .  A
C693        N698   1.367       .  A
C693        C759   1.468       .  S
N694        C695   1.359       .  A
C695        N696   1.352       .  A
N696        C697   1.351       .  A
C697        N698   1.357       .  A
C697        C835   1.470   1_554  S
C699        N700   1.368       .  A
C699        N704   1.369       .  A
C699        C745   1.468       .  S
N700        C701   1.357       .  A
C701        N702   1.350       .  A
C701        C843   1.470   1_554  S
N702        C703   1.352       .  A
C703        N704   1.359       .  A
O705       Ni713   1.918       .  S
O705        C715   1.281       .  A
O706       Ni713   1.915       .  S
O706        C716   1.280       .  A
O707       Ni713   1.915       .  S
O707        C717   1.280       .  A
O708       Ni713   1.918       .  S
O708        C718   1.281       .  A
O709       Ni714   1.917       .  S
O709        C718   1.281       .  A
O710       Ni714   1.919       .  S
O710        C717   1.282       .  A
O711       Ni714   1.919       .  S
O711        C716   1.282       .  A
O712       Ni714   1.917       .  S
O712        C715   1.281       .  A
Ni713      Ni714   2.391       .  S
O719       Ni727   1.918       .  S
O719        C729   1.281       .  A
O720       Ni727   1.915       .  S
O720        C730   1.280       .  A
O721       Ni727   1.915       .  S
O721        C731   1.280       .  A
O722       Ni727   1.918       .  S
O722        C732   1.281       .  A
O723       Ni728   1.917       .  S
O723        C732   1.281       .  A
O724       Ni728   1.919       .  S
O724        C731   1.282       .  A
O725       Ni728   1.919       .  S
O725        C730   1.282       .  A
O726       Ni728   1.917       .  S
O726        C729   1.281       .  A
Ni727      Ni728   2.391       .  S
O733       Ni741   1.917       .  S
O733        C743   1.281       .  A
O734       Ni741   1.919       .  S
O734        C744   1.282       .  A
O735       Ni741   1.919       .  S
O735        C745   1.282       .  A
O736       Ni741   1.917       .  S
O736        C746   1.281       .  A
O737       Ni742   1.918       .  S
O737        C746   1.281       .  A
O738       Ni742   1.915       .  S
O738        C745   1.280       .  A
O739       Ni742   1.915       .  S
O739        C744   1.280       .  A
O740       Ni742   1.918       .  S
O740        C743   1.281       .  A
Ni741      Ni742   2.391       .  S
O747       Ni755   1.919       .  S
O747        C757   1.282       .  A
O748       Ni755   1.917       .  S
O748        C758   1.281       .  A
O749       Ni755   1.917       .  S
O749        C759   1.281       .  A
O750       Ni755   1.919       .  S
O750        C760   1.282       .  A
O751       Ni756   1.915       .  S
O751        C760   1.280       .  A
O752       Ni756   1.918       .  S
O752        C759   1.281       .  A
O753       Ni756   1.918       .  S
O753        C758   1.281       .  A
O754       Ni756   1.915       .  S
O754        C757   1.280       .  A
Ni755      Ni756   2.391       .  S
C761        N762   1.369       .  A
C761        N766   1.368       .  A
C761        C869   1.468       .  S
N762        C763   1.359       .  A
C763        N764   1.352       .  A
C763        C769   1.484       .  S
N764        C765   1.350       .  A
C765        N766   1.357       .  A
C765        C783   1.470       .  S
C767        N768   1.369       .  A
C767        N772   1.367       .  A
C767        C884   1.468       .  S
N768        C769   1.359       .  A
C769        N770   1.352       .  A
N770        C771   1.351       .  A
C771        N772   1.357       .  A
C771        C775   1.470       .  S
C773       N1078   1.368       .  A
C773        N778   1.369       .  A
C773        C912   1.468       .  S
N774       C1077   1.368       .  A
N774        C775   1.357       .  A
C775        N776   1.350       .  A
N776        C777   1.352       .  A
C777       N1082   1.359       .  A
C777        C781   1.484       .  S
N778       C1081   1.359   1_545  A
C779        N780   1.369       .  A
C779       N1088   1.367       .  A
C779        C898   1.468       .  S
N780       C1085   1.359   1_545  A
C781       N1084   1.359       .  A
C781        N782   1.352       .  A
N782        C783   1.351       .  A
C783        N784   1.357       .  A
N784       C1083   1.367       .  A
C785        N786   1.367       .  A
C785        N790   1.368       .  A
C785        C895   1.468       .  S
N786        C787   1.357       .  A
C787        N788   1.351       .  A
C787        C801   1.470       .  S
N788        C789   1.353       .  A
C789        N790   1.359       .  A
C789        C795   1.484       .  S
C791        N792   1.368       .  A
C791        N796   1.369       .  A
C791        C909   1.468       .  S
N792        C793   1.357       .  A
C793        N794   1.350       .  A
C793        C807   1.470       .  S
N794        C795   1.352       .  A
C795        N796   1.359       .  A
C797        N798   1.369       .  A
C797        N802   1.368       .  A
C797        C868   1.468       .  S
N798        C799   1.359       .  A
C799        N800   1.352       .  A
C799        C805   1.484       .  S
N800        C801   1.350       .  A
C801        N802   1.357       .  A
C803        N804   1.369       .  A
C803        N808   1.367       .  A
C803        C881   1.468       .  S
N804        C805   1.359       .  A
C805        N806   1.352       .  A
N806        C807   1.351       .  A
C807        N808   1.357       .  A
C809        N810   1.369       .  A
C809        N814   1.368       .  A
C809        C882   1.468       .  S
N810        C811   1.359       .  A
C811        N812   1.352       .  A
N812        C813   1.350       .  A
C813        N814   1.357       .  A
C815        N816   1.367       .  A
C815        N820   1.368       .  A
C815        C867   1.468       .  S
N816        C817   1.357       .  A
C817        N818   1.351       .  A
N818        C819   1.352       .  A
C819        N820   1.359       .  A
C821        N822   1.369       .  A
C821       N1130   1.367       .  A
C821        C910   1.468       .  S
N822       C1127   1.359   1_545  A
C823       N1126   1.359       .  A
C823        N824   1.352       .  A
N824        C825   1.351       .  A
C825        N826   1.357       .  A
N826       C1125   1.367       .  A
C827       N1132   1.368       .  A
C827        N832   1.369       .  A
C827        C896   1.468       .  S
N828       C1131   1.368       .  A
N828        C829   1.357       .  A
C829        N830   1.350       .  A
N830        C831   1.352       .  A
C831       N1136   1.359       .  A
N832       C1135   1.359   1_545  A
C833        N834   1.368       .  A
C833        N838   1.369       .  A
C833        C883   1.468       .  S
N834        C835   1.357       .  A
C835        N836   1.350       .  A
N836        C837   1.352       .  A
C837        N838   1.359       .  A
C839        N840   1.369       .  A
C839        N844   1.367       .  A
C839        C870   1.468       .  S
N840        C841   1.359       .  A
C841        N842   1.352       .  A
N842        C843   1.351       .  A
C843        N844   1.357       .  A
C845        N846   1.369       .  A
C845        N850   1.367       .  A
C845        C911   1.468       .  S
N846        C847   1.359       .  A
C847        N848   1.352       .  A
N848        C849   1.351       .  A
C849        N850   1.357       .  A
C851        N852   1.368       .  A
C851        N856   1.369       .  A
C851        C897   1.468       .  S
N852        C853   1.357       .  A
C853        N854   1.350       .  A
N854        C855   1.352       .  A
C855        N856   1.359       .  A
O857       Ni865   1.918       .  S
O857        C867   1.281       .  A
O858       Ni865   1.915       .  S
O858        C868   1.280       .  A
O859       Ni865   1.915       .  S
O859        C869   1.280       .  A
O860       Ni865   1.918       .  S
O860        C870   1.281       .  A
O861       Ni866   1.917       .  S
O861        C870   1.281       .  A
O862       Ni866   1.919       .  S
O862        C869   1.282       .  A
O863       Ni866   1.919       .  S
O863        C868   1.282       .  A
O864       Ni866   1.917       .  S
O864        C867   1.281       .  A
Ni865      Ni866   2.391       .  S
O871       Ni879   1.918       .  S
O871        C881   1.281       .  A
O872       Ni879   1.915       .  S
O872        C882   1.280       .  A
O873       Ni879   1.915       .  S
O873        C883   1.280       .  A
O874       Ni879   1.918       .  S
O874        C884   1.281       .  A
O875       Ni880   1.917       .  S
O875        C884   1.281       .  A
O876       Ni880   1.919       .  S
O876        C883   1.282       .  A
O877       Ni880   1.919       .  S
O877        C882   1.282       .  A
O878       Ni880   1.917       .  S
O878        C881   1.281       .  A
Ni879      Ni880   2.391       .  S
O885       Ni893   1.917       .  S
O885        C895   1.281       .  A
O886       Ni893   1.919       .  S
O886        C896   1.282       .  A
O887       Ni893   1.919       .  S
O887        C897   1.282       .  A
O888       Ni893   1.917       .  S
O888        C898   1.281       .  A
O889       Ni894   1.918       .  S
O889        C898   1.281       .  A
O890       Ni894   1.915       .  S
O890        C897   1.280       .  A
O891       Ni894   1.915       .  S
O891        C896   1.280       .  A
O892       Ni894   1.918       .  S
O892        C895   1.281       .  A
Ni893      Ni894   2.391       .  S
O899       Ni907   1.919       .  S
O899        C909   1.282       .  A
O900       Ni907   1.917       .  S
O900        C910   1.281       .  A
O901       Ni907   1.917       .  S
O901        C911   1.281       .  A
O902       Ni907   1.919       .  S
O902        C912   1.282       .  A
O903       Ni908   1.915       .  S
O903        C912   1.280       .  A
O904       Ni908   1.918       .  S
O904        C911   1.281       .  A
O905       Ni908   1.918       .  S
O905        C910   1.281       .  A
O906       Ni908   1.915       .  S
O906        C909   1.280       .  A
Ni907      Ni908   2.391       .  S
C913        N914   1.369       .  A
C913        N918   1.368       .  A
C913       C1021   1.468       .  S
N914        C915   1.359       .  A
C915        N916   1.352       .  A
C915        C921   1.484       .  S
N916        C917   1.350       .  A
C917        N918   1.357       .  A
C917        C935   1.470       .  S
C919        N920   1.369       .  A
C919        N924   1.367       .  A
C919       C1036   1.468       .  S
N920        C921   1.359       .  A
C921        N922   1.352       .  A
N922        C923   1.351       .  A
C923        N924   1.357       .  A
C923        C927   1.470       .  S
C925        N930   1.369       .  A
C925       C1064   1.468       .  S
N926        C927   1.357   1_545  A
C927        N928   1.350       .  A
N928        C929   1.352       .  A
C929        C933   1.484       .  S
C931        N932   1.369       .  A
C931       C1050   1.468       .  S
C933        N934   1.352       .  A
N934        C935   1.350       .  A
C935        N936   1.357   1_565  A
C937        N938   1.367       .  A
C937        N942   1.368       .  A
C937       C1047   1.468       .  S
N938        C939   1.357       .  A
C939        N940   1.351       .  A
C939        C953   1.470       .  S
N940        C941   1.353       .  A
C941        N942   1.359       .  A
C941        C947   1.484       .  S
C943        N944   1.368       .  A
C943        N948   1.369       .  A
C943       C1061   1.468       .  S
N944        C945   1.357       .  A
C945        N946   1.350       .  A
C945        C959   1.470       .  S
N946        C947   1.352       .  A
C947        N948   1.359       .  A
C949        N950   1.369       .  A
C949        N954   1.368       .  A
C949       C1020   1.468       .  S
N950        C951   1.359       .  A
C951        N952   1.352       .  A
C951        C957   1.484       .  S
N952        C953   1.350       .  A
C953        N954   1.357       .  A
C955        N956   1.368       .  A
C955        N960   1.367       .  A
C955       C1033   1.468       .  S
N956        C957   1.359       .  A
C957        N958   1.352       .  A
N958        C959   1.351       .  A
C959        N960   1.357       .  A
C961        N962   1.369       .  A
C961        N966   1.368       .  A
C961       C1034   1.468       .  S
N962        C963   1.359       .  A
C963        N964   1.352       .  A
N964        C965   1.350       .  A
C965        N966   1.357       .  A
C965       C1129   1.470       .  S
C967        N968   1.367       .  A
C967        N972   1.369       .  A
C967       C1019   1.468       .  S
N968        C969   1.357       .  A
C969        N970   1.351       .  A
C969       C1133   1.470       .  S
N970        C971   1.352       .  A
C971        N972   1.359       .  A
C973        N974   1.369       .  A
C973       C1062   1.468       .  S
C975        N976   1.352       .  A
N976        C977   1.351       .  A
C977        N978   1.357   1_565  A
C977       C1117   1.470   1_554  S
C979        N984   1.369       .  A
C979       C1048   1.468       .  S
N980        C981   1.357   1_545  A
C981        N982   1.350       .  A
C981       C1121   1.470   1_554  S
N982        C983   1.352       .  A
C985        N986   1.368       .  A
C985        N990   1.369       .  A
C985       C1035   1.468       .  S
N986        C987   1.357       .  A
C987        N988   1.350       .  A
C987       C1153   1.470       .  S
N988        C989   1.352       .  A
C989        N990   1.359       .  A
C991        N992   1.369       .  A
C991        N996   1.367       .  A
C991       C1022   1.468       .  S
N992        C993   1.359       .  A
C993        N994   1.352       .  A
N994        C995   1.351       .  A
C995        N996   1.357       .  A
C995       C1157   1.470       .  S
C997        N998   1.369       .  A
C997       N1002   1.367       .  A
C997       C1063   1.468       .  S
N998        C999   1.359       .  A
C999       N1000   1.352       .  A
N1000      C1001   1.351       .  A
C1001      N1002   1.357       .  A
C1001      C1139   1.470   1_554  S
C1003      N1004   1.368       .  A
C1003      N1008   1.369       .  A
C1003      C1049   1.468       .  S
N1004      C1005   1.357       .  A
C1005      N1006   1.350       .  A
C1005      C1147   1.470   1_554  S
N1006      C1007   1.352       .  A
C1007      N1008   1.359       .  A
O1009     Ni1017   1.918       .  S
O1009      C1019   1.281       .  A
O1010     Ni1017   1.915       .  S
O1010      C1020   1.280       .  A
O1011     Ni1017   1.915       .  S
O1011      C1021   1.280       .  A
O1012     Ni1017   1.918       .  S
O1012      C1022   1.281       .  A
O1013     Ni1018   1.917       .  S
O1013      C1022   1.281       .  A
O1014     Ni1018   1.919       .  S
O1014      C1021   1.282       .  A
O1015     Ni1018   1.919       .  S
O1015      C1020   1.282       .  A
O1016     Ni1018   1.917       .  S
O1016      C1019   1.281       .  A
Ni1017    Ni1018   2.391       .  S
O1023     Ni1031   1.918       .  S
O1023      C1033   1.281       .  A
O1024     Ni1031   1.915       .  S
O1024      C1034   1.280       .  A
O1025     Ni1031   1.915       .  S
O1025      C1035   1.280       .  A
O1026     Ni1031   1.918       .  S
O1026      C1036   1.281       .  A
O1027     Ni1032   1.917       .  S
O1027      C1036   1.281       .  A
O1028     Ni1032   1.919       .  S
O1028      C1035   1.282       .  A
O1029     Ni1032   1.919       .  S
O1029      C1034   1.282       .  A
O1030     Ni1032   1.917       .  S
O1030      C1033   1.281       .  A
Ni1031    Ni1032   2.391       .  S
O1037     Ni1045   1.917       .  S
O1037      C1047   1.281       .  A
O1038     Ni1045   1.919       .  S
O1038      C1048   1.282       .  A
O1039     Ni1045   1.919       .  S
O1039      C1049   1.282       .  A
O1040     Ni1045   1.917       .  S
O1040      C1050   1.281       .  A
O1041     Ni1046   1.918       .  S
O1041      C1050   1.281       .  A
O1042     Ni1046   1.915       .  S
O1042      C1049   1.280       .  A
O1043     Ni1046   1.915       .  S
O1043      C1048   1.280       .  A
O1044     Ni1046   1.918       .  S
O1044      C1047   1.281       .  A
Ni1045    Ni1046   2.391       .  S
O1051     Ni1059   1.919       .  S
O1051      C1061   1.282       .  A
O1052     Ni1059   1.917       .  S
O1052      C1062   1.281       .  A
O1053     Ni1059   1.917       .  S
O1053      C1063   1.281       .  A
O1054     Ni1059   1.919       .  S
O1054      C1064   1.282       .  A
O1055     Ni1060   1.915       .  S
O1055      C1064   1.280       .  A
O1056     Ni1060   1.918       .  S
O1056      C1063   1.281       .  A
O1057     Ni1060   1.918       .  S
O1057      C1062   1.281       .  A
O1058     Ni1060   1.915       .  S
O1058      C1061   1.280       .  A
Ni1059    Ni1060   2.391       .  S
C1065      N1066   1.369       .  A
C1065      N1070   1.368       .  A
C1065      C1173   1.468       .  S
N1066      C1067   1.359       .  A
C1067      N1068   1.352       .  A
C1067      C1073   1.484       .  S
N1068      C1069   1.350       .  A
C1069      N1070   1.357       .  A
C1069      C1087   1.470       .  S
C1071      N1072   1.369       .  A
C1071      N1076   1.367       .  A
C1071      C1188   1.468       .  S
N1072      C1073   1.359       .  A
C1073      N1074   1.352       .  A
N1074      C1075   1.351       .  A
C1075      N1076   1.357       .  A
C1075      C1079   1.470       .  S
C1077      N1082   1.369       .  A
C1077      C1216   1.468       .  S
N1078      C1079   1.357   1_545  A
C1079      N1080   1.350       .  A
N1080      C1081   1.352       .  A
C1081      C1085   1.484       .  S
C1083      N1084   1.369       .  A
C1083      C1202   1.468       .  S
C1085      N1086   1.352       .  A
N1086      C1087   1.351       .  A
C1087      N1088   1.357   1_565  A
C1089      N1090   1.367       .  A
C1089      N1094   1.368       .  A
C1089      C1199   1.468       .  S
N1090      C1091   1.357       .  A
C1091      N1092   1.351       .  A
C1091      C1105   1.470       .  S
N1092      C1093   1.353       .  A
C1093      N1094   1.359       .  A
C1093      C1099   1.484       .  S
C1095      N1096   1.368       .  A
C1095      N1100   1.369       .  A
C1095      C1213   1.468       .  S
N1096      C1097   1.357       .  A
C1097      N1098   1.350       .  A
C1097      C1111   1.470       .  S
N1098      C1099   1.352       .  A
C1099      N1100   1.359       .  A
C1101      N1102   1.369       .  A
C1101      N1106   1.368       .  A
C1101      C1172   1.468       .  S
N1102      C1103   1.359       .  A
C1103      N1104   1.352       .  A
C1103      C1109   1.484       .  S
N1104      C1105   1.350       .  A
C1105      N1106   1.357       .  A
C1107      N1108   1.368       .  A
C1107      N1112   1.367       .  A
C1107      C1185   1.468       .  S
N1108      C1109   1.359       .  A
C1109      N1110   1.352       .  A
N1110      C1111   1.351       .  A
C1111      N1112   1.357       .  A
C1113      N1114   1.369       .  A
C1113      N1118   1.368       .  A
C1113      C1186   1.468       .  S
N1114      C1115   1.359       .  A
C1115      N1116   1.352       .  A
N1116      C1117   1.350       .  A
C1117      N1118   1.357       .  A
C1119      N1120   1.367       .  A
C1119      N1124   1.369       .  A
C1119      C1171   1.468       .  S
N1120      C1121   1.357       .  A
C1121      N1122   1.351       .  A
N1122      C1123   1.352       .  A
C1123      N1124   1.359       .  A
C1125      N1126   1.369       .  A
C1125      C1214   1.468       .  S
C1127      N1128   1.352       .  A
N1128      C1129   1.351       .  A
C1129      N1130   1.357   1_565  A
C1131      N1136   1.369       .  A
C1131      C1200   1.468       .  S
N1132      C1133   1.357   1_545  A
C1133      N1134   1.350       .  A
N1134      C1135   1.352       .  A
C1137      N1138   1.368       .  A
C1137      N1142   1.369       .  A
C1137      C1187   1.468       .  S
N1138      C1139   1.357       .  A
C1139      N1140   1.350       .  A
N1140      C1141   1.352       .  A
C1141      N1142   1.359       .  A
C1143      N1144   1.369       .  A
C1143      N1148   1.367       .  A
C1143      C1174   1.468       .  S
N1144      C1145   1.359       .  A
C1145      N1146   1.352       .  A
N1146      C1147   1.351       .  A
C1147      N1148   1.357       .  A
C1149      N1150   1.369       .  A
C1149      N1154   1.367       .  A
C1149      C1215   1.468       .  S
N1150      C1151   1.359       .  A
C1151      N1152   1.352       .  A
N1152      C1153   1.351       .  A
C1153      N1154   1.357       .  A
C1155      N1156   1.368       .  A
C1155      N1160   1.369       .  A
C1155      C1201   1.468       .  S
N1156      C1157   1.357       .  A
C1157      N1158   1.350       .  A
N1158      C1159   1.352       .  A
C1159      N1160   1.359       .  A
O1161     Ni1169   1.918       .  S
O1161      C1171   1.281       .  A
O1162     Ni1169   1.915       .  S
O1162      C1172   1.280       .  A
O1163     Ni1169   1.915       .  S
O1163      C1173   1.280       .  A
O1164     Ni1169   1.918       .  S
O1164      C1174   1.281       .  A
O1165     Ni1170   1.917       .  S
O1165      C1174   1.281       .  A
O1166     Ni1170   1.919       .  S
O1166      C1173   1.282       .  A
O1167     Ni1170   1.919       .  S
O1167      C1172   1.282       .  A
O1168     Ni1170   1.917       .  S
O1168      C1171   1.281       .  A
Ni1169    Ni1170   2.391       .  S
O1175     Ni1183   1.918       .  S
O1175      C1185   1.281       .  A
O1176     Ni1183   1.915       .  S
O1176      C1186   1.280       .  A
O1177     Ni1183   1.915       .  S
O1177      C1187   1.280       .  A
O1178     Ni1183   1.918       .  S
O1178      C1188   1.281       .  A
O1179     Ni1184   1.917       .  S
O1179      C1188   1.281       .  A
O1180     Ni1184   1.919       .  S
O1180      C1187   1.282       .  A
O1181     Ni1184   1.919       .  S
O1181      C1186   1.282       .  A
O1182     Ni1184   1.917       .  S
O1182      C1185   1.281       .  A
Ni1183    Ni1184   2.391       .  S
O1189     Ni1197   1.917       .  S
O1189      C1199   1.281       .  A
O1190     Ni1197   1.919       .  S
O1190      C1200   1.282       .  A
O1191     Ni1197   1.919       .  S
O1191      C1201   1.282       .  A
O1192     Ni1197   1.917       .  S
O1192      C1202   1.281       .  A
O1193     Ni1198   1.918       .  S
O1193      C1202   1.281       .  A
O1194     Ni1198   1.915       .  S
O1194      C1201   1.280       .  A
O1195     Ni1198   1.915       .  S
O1195      C1200   1.280       .  A
O1196     Ni1198   1.918       .  S
O1196      C1199   1.281       .  A
Ni1197    Ni1198   2.391       .  S
O1203     Ni1211   1.919       .  S
O1203      C1213   1.282       .  A
O1204     Ni1211   1.917       .  S
O1204      C1214   1.281       .  A
O1205     Ni1211   1.917       .  S
O1205      C1215   1.281       .  A
O1206     Ni1211   1.919       .  S
O1206      C1216   1.282       .  A
O1207     Ni1212   1.915       .  S
O1207      C1216   1.280       .  A
O1208     Ni1212   1.918       .  S
O1208      C1215   1.281       .  A
O1209     Ni1212   1.918       .  S
O1209      C1214   1.281       .  A
O1210     Ni1212   1.915       .  S
O1210      C1213   1.280       .  A
Ni1211    Ni1212   2.391       .  S
