geometry optimzed in LAMMPS
_audit_creation_date              2020-11-30 
_audit_creation_method            'lammps2cif' 
_symmetry_space_group_name_H-M    'P1' 
_symmetry_Int_Tables_number       1 
_symmetry_cell_setting            triclinic 
loop_ 
_symmetry_equiv_pos_as_xyz 
  x,y,z 
_cell_length_a                    30.29867386866924 
_cell_length_b                    31.945355017608595 
_cell_length_c                    31.662769287456147 
_cell_angle_alpha                 88.69341195433013 
_cell_angle_beta                  90.50715273070281 
_cell_angle_gamma                 90.20920052220225 
loop_ 
_atom_site_label 
_atom_site_type_symbol 
_atom_site_fract_x 
_atom_site_fract_y 
_atom_site_fract_z 
_atom_site_charge 
C1          C  0.50143067  0.23301543  0.52169518    -0.00160
C2          C  0.99784977  0.23433313  0.47854714    -0.00160
C3          C  0.25302718  0.50025319  0.52344940    -0.00160
C4          C  0.25308682  0.00356449  0.48029632    -0.00160
C5          C  0.13013532  0.27798587  0.64331152     0.41730
N6          N  0.15890609  0.25337238  0.70024297     0.00620
C7          C  0.32768899  0.32899175  0.82495181    -0.07260
H8          H  0.34839883  0.33340097  0.65025612     0.06110
C9          C  0.34272884  0.17758822  0.66850685    -0.07610
Co10       Co  0.21647846  0.31409613  0.74742271     0.74180
N11         N  0.29917688  0.32082277  0.69802561    -0.26780
Co12       Co  0.32282342  0.27804009  0.74509527     0.74070
C13         C  0.36565753  0.21086050  0.64444499     0.41830
N14         N  0.24039896  0.15555223  0.70720358     0.00240
N15         N  0.33921072  0.23635353  0.70030815     0.00340
N16         N  0.25906789  0.35590374  0.82856362    -0.47630
H17         H  0.16015291  0.34348954  0.65399540     0.06100
N18         N  0.25855406  0.33418437  0.70177603     0.00630
N19         N  0.34481746  0.23561881  0.79170456     0.00370
C20         C  0.37976104  0.20526290  0.84274355     0.41970
N21         N  0.19940226  0.16830803  0.70288269    -0.26240
C22         C  0.15274102  0.31748934  0.81857828    -0.07160
N23         N  0.13414153  0.24340218  0.66764558    -0.47350
N24         N  0.37799747  0.24068625  0.81869390    -0.47570
C25         C  0.11644749  0.29221538  0.83387753     0.41750
N26         N  0.26330544  0.33217689  0.79462578     0.00620
N27         N  0.19641461  0.17183670  0.79581906    -0.26260
N28         N  0.17219997  0.29284582  0.69957432    -0.26760
N29         N  0.23711570  0.15730344  0.79881168     0.00250
H30         H  0.13696895  0.16004731  0.83093937     0.06140
H31         H  0.34003237  0.14456059  0.83528969     0.06180
N32         N  0.30363363  0.31724043  0.79186414    -0.26800
N33         N  0.32644481  0.19679930  0.70259075    -0.26420
N34         N  0.15441344  0.25604383  0.79118004     0.00620
C35         C  0.27930577  0.36504708  0.64415355     0.42020
C36         C  0.18206233  0.14856700  0.66887325    -0.07670
N37         N  0.32666690  0.19825110  0.79545192    -0.26420
H38         H  0.33752621  0.14523235  0.66048244     0.06160
N39         N  0.24600349  0.35992952  0.67128642    -0.47640
H40         H  0.14864356  0.15233289  0.65732973     0.06150
C41         C  0.20148957  0.12705686  0.84967189     0.41850
C42         C  0.15498399  0.31140023  0.66431022    -0.07170
Co43       Co  0.17618736  0.21195973  0.74746185     0.73820
N44         N  0.25239337  0.12869157  0.67898177    -0.47360
C45         C  0.29835170  0.35357520  0.84998145     0.42120
N46         N  0.11870984  0.25441647  0.81531326    -0.47350
Co47       Co  0.28320710  0.17608577  0.75160118     0.73890
C48         C  0.34580083  0.17719109  0.82721144    -0.07670
C49         C  0.31569447  0.33878111  0.66215173    -0.07240
N50         N  0.17335404  0.29323125  0.79184794    -0.26760
N51         N  0.36260474  0.24587808  0.66660224    -0.47530
H52         H  0.36193381  0.32133650  0.83084115     0.06120
C53         C  0.17186016  0.15487199  0.82654111    -0.07650
Cl54       Cl  0.24959279  0.24499363  0.74802044    -0.50650
C55         C  0.21829624  0.12181924  0.65298028     0.41880
H56         H  0.15857897  0.35068354  0.82191336     0.06090
N57         N  0.24145424  0.12929877  0.83045588    -0.47360
C58         C  0.13868873  0.22708059  0.35859964     0.41730
N59         N  0.16671693  0.25231154  0.30209886     0.00620
C60         C  0.32882887  0.16870206  0.17602174    -0.07260
H61         H  0.35504027  0.15930910  0.34469916     0.06110
C62         C  0.35266809  0.32015126  0.33145654    -0.07610
Co63       Co  0.21935707  0.19044629  0.25247542     0.74180
N64         N  0.30375460  0.17971921  0.30021629    -0.26780
Co65       Co  0.32705835  0.22264176  0.25266684     0.74070
C66         C  0.37598612  0.28564242  0.35349714     0.41830
N67         N  0.25145479  0.34759757  0.29457332     0.00240
N68         N  0.34737566  0.26342541  0.29659325     0.00340
N69         N  0.25820520  0.14588234  0.17095308    -0.47630
H70         H  0.16371653  0.16066473  0.34460465     0.06100
N71         N  0.26184125  0.16926143  0.29772965     0.00630
N72         N  0.34764998  0.26525895  0.20534397     0.00370
C73         C  0.37881971  0.29515682  0.15212293     0.41970
N74         N  0.21005642  0.33613254  0.29936309    -0.26240
C75         C  0.15350801  0.18976919  0.18209079    -0.07160
N76         N  0.14328232  0.26217804  0.33518901    -0.47350
N77         N  0.37813817  0.25963018  0.17620001    -0.47570
C78         C  0.11695016  0.21572969  0.16852124     0.41750
N79         N  0.26388218  0.17025843  0.20445459     0.00620
N80         N  0.20183222  0.33338579  0.20684958    -0.26260
N81         N  0.17780199  0.21240994  0.30118792    -0.26760
N82         N  0.24257419  0.34760798  0.20268920     0.00250
H83         H  0.14064684  0.34502678  0.17376407     0.06140
H84         H  0.34190233  0.35656372  0.16213392     0.06180
N85         N  0.30503551  0.18338670  0.20736118    -0.26800
N86         N  0.33546062  0.30314225  0.29614523    -0.26420
N87         N  0.15765809  0.25038303  0.21118925     0.00620
C88         C  0.28364644  0.13318486  0.35176453     0.42020
C89         C  0.19485387  0.35620184  0.33366161    -0.07670
N90         N  0.33059844  0.30313985  0.20285091    -0.26420
H91         H  0.34779851  0.35161832  0.34163846     0.06160
N92         N  0.24891239  0.14297774  0.32747341    -0.47640
H93         H  0.16179665  0.35365752  0.34601896     0.06150
C94         C  0.20421391  0.37813616  0.15314993     0.41850
C95         C  0.16046090  0.19339981  0.33577668    -0.07170
Co96       Co  0.18305901  0.29345761  0.25503076     0.73820
N97         N  0.26580300  0.37364317  0.32304732    -0.47360
C98         C  0.29837763  0.14418730  0.15161170     0.42120
N99         N  0.12085997  0.25297594  0.18806550    -0.47350
Co100      Co  0.29080666  0.32637213  0.24848004     0.73890
C101        C  0.34750113  0.32386901  0.16996350    -0.07670
C102        C  0.32101934  0.15823039  0.33416735    -0.07240
N103        N  0.17574410  0.21304583  0.20899297    -0.26760
N104        N  0.37116482  0.25195700  0.32968330    -0.47530
H105        H  0.36348441  0.17486343  0.17078367     0.06120
C106        C  0.17575648  0.35036783  0.17710632    -0.07650
Cl107      Cl  0.25500185  0.25828995  0.25195841    -0.50650
C108        C  0.23281825  0.38131871  0.34927628     0.41880
H109        H  0.15834723  0.15657580  0.17797624     0.06090
N110        N  0.24541123  0.37572168  0.17086713    -0.47360
O111        O  0.03946019  0.40236218  0.96828264    -0.80860
O112        O  0.03680664  0.10663073  0.03613268    -0.80890
O113        O  0.05051319  0.02864031  0.92901177    -0.80890
O114        O  0.04908683  0.47891534  0.07725087    -0.80840
O115        O  0.07369679  0.04393031  0.99344674    -0.80960
O116        O  0.07307109  0.46491497  0.01301755    -0.80880
O117        O  0.01330315  0.06237051  0.08566658    -0.80860
O118        O  0.01498084  0.44588522  0.91820720    -0.80900
C119        C  0.03224143  0.41013656  0.92986312     1.08830
C120        C  0.02937914  0.09866346  0.07438022     1.08710
C121        C  0.08119142  0.04018226  0.95419668     1.08850
C122        C  0.07994906  0.46794501  0.05253432     1.08730
O123        O  0.50857735  0.41200330  0.04078193    -0.80860
O124        O  0.51073573  0.09621078  0.96191950    -0.80940
O125        O  0.43010636  0.48290102  0.93719278    -0.80880
O126        O  0.42867155  0.02661984  0.06618741    -0.80860
O127        O  0.45122186  0.08006030  0.02760298    -0.80910
O128        O  0.45278764  0.42647321  0.97059368    -0.80870
O129        O  0.45749513  0.44813984  0.07002248    -0.80830
O130        O  0.45939342  0.05968805  0.93315282    -0.80900
Co131      Co  0.01423129  0.44913389  0.99092378     1.51530
Co132      Co  0.01369952  0.05899881  0.01234518     1.51690
Co133      Co  0.98911560  0.50486331  0.93560323     1.51570
Co134      Co  0.98771849  0.00327081  0.06857388     1.51470
O135        O  0.98986746  0.00376362  0.00189466    -1.42800
C136        C  0.47696694  0.41398453  0.06543403     1.08750
C137        C  0.48034959  0.09338991  0.93549303     1.08840
C138        C  0.42397033  0.44532734  0.94712046     1.08780
C139        C  0.42140498  0.06246677  0.05050763     1.08760
C140        C  0.18712974  0.40666869  0.11908729    -0.06850
C141        C  0.17605110  0.44789506  0.12934267    -0.17980
C142        C  0.14401621  0.47068112  0.10587365     0.10350
C143        C  0.12235066  0.45203538  0.07115955    -0.06780
C144        C  0.13668365  0.41243595  0.05863868    -0.18010
C145        C  0.16817500  0.38959724  0.08226833     0.10380
S146        S  0.13087944  0.52255355  0.12303691    -0.32980
S147        S  0.17903629  0.33668348  0.06658992    -0.32980
H148        H  0.22070299  0.33356703  0.08632705     0.28390
H149        H  0.11300776  0.53706323  0.08433859     0.28380
H150        H  0.18966785  0.46118413  0.15784375     0.18970
H151        H  0.12045496  0.39746850  0.03228544     0.18980
C152        C  0.07630800  0.19658623  0.15224588    -0.06850
C153        C  0.06337800  0.15842513  0.17170523    -0.17980
C154        C  0.04461597  0.12625672  0.14824669     0.10350
C155        C  0.03795127  0.13276354  0.10444115    -0.06780
C156        C  0.04348879  0.17366808  0.08722485    -0.18010
C157        C  0.06246988  0.20556172  0.11073233     0.10380
S158        S  0.03523566  0.07678174  0.17505491    -0.32980
S159        S  0.07402336  0.25495290  0.08443727    -0.32980
H160        H  0.07419332  0.27846088  0.12143644     0.28390
H161        H  0.99134309  0.07372944  0.16051012     0.28380
H162        H  0.07302505  0.15175045  0.20423691     0.18970
H163        H  0.03584129  0.18032123  0.05424852     0.18980
C164        C  0.31278980  0.12253906  0.11282176    -0.06850
C165        C  0.33960236  0.14618290  0.08496503    -0.17980
C166        C  0.37328459  0.12772239  0.06152772     0.10350
C167        C  0.37951890  0.08384131  0.06377697    -0.06780
C168        C  0.34801309  0.05984442  0.08682231    -0.18010
C169        C  0.31533087  0.07859440  0.11143197     0.10380
S170        S  0.41060579  0.16267523  0.03454925    -0.32980
S171        S  0.28199380  0.04509715  0.14480728    -0.32980
H172        H  0.24460884  0.07100601  0.14244440     0.28390
H173        H  0.44595079  0.15262699  0.06200980     0.28380
H174        H  0.33805395  0.18003877  0.08560929     0.18970
H175        H  0.35088283  0.02606735  0.08857056     0.18980
C176        C  0.41750563  0.31158528  0.13016988    -0.06850
C177        C  0.44352988  0.33985899  0.15288072    -0.17980
C178        C  0.46547843  0.37259117  0.13217523     0.10350
C179        C  0.46229516  0.37625015  0.08791123    -0.06780
C180        C  0.44137389  0.34480158  0.06486968    -0.18010
C181        C  0.41861647  0.31246384  0.08573863     0.10380
S182        S  0.49368586  0.41067444  0.16387398    -0.32980
S183        S  0.38726688  0.27635604  0.05443060    -0.32980
H184        H  0.38453660  0.24501814  0.08621740     0.28390
H185        H  0.52707119  0.41919951  0.13433244     0.28380
H186        H  0.44254767  0.33931843  0.18713808     0.18970
H187        H  0.43991801  0.34721107  0.03066276     0.18980
C188        C  0.04206318  0.37624229  0.90013758    -0.06850
C189        C  0.04863135  0.33556732  0.91764750    -0.17980
C190        C  0.06637864  0.30351885  0.89400485     0.10350
C191        C  0.07729920  0.31180810  0.85176202    -0.06780
C192        C  0.06347901  0.34971958  0.83233405    -0.17950
C193        C  0.04724992  0.38249582  0.85620792     0.10380
S194        S  0.08007242  0.25484350  0.92080239    -0.32980
S195        S  0.03931722  0.43232634  0.82956744    -0.32980
H196        H  0.06801449  0.45361398  0.85693911     0.28390
H197        H  0.07699552  0.23040118  0.88452940     0.28380
H198        H  0.04254771  0.32911826  0.95085005     0.18970
H199        H  0.07133156  0.35598429  0.79942558     0.18980
C200        C  0.12415369  0.05382955  0.93505883    -0.06850
C201        C  0.13513346  0.03789956  0.89537749    -0.17980
C202        C  0.16562157  0.05824973  0.86876474     0.10350
C203        C  0.18597578  0.09575340  0.88152903    -0.06780
C204        C  0.17846525  0.10951229  0.92260917    -0.18010
C205        C  0.14862869  0.08869464  0.94970975     0.10380
S206        S  0.17278916  0.03789862  0.81664949    -0.32980
S207        S  0.13958874  0.11154539  0.00030908    -0.32980
H208        H  0.14478769  0.07313651  0.02234201     0.28390
H209        H  0.21617656  0.05275969  0.81166623     0.28380
H210        H  0.11741414  0.01103325  0.88356304     0.18970
H211        H  0.19338795  0.13859764  0.93254319     0.18980
C212        C  0.46827956  0.12921577  0.90852017    -0.06850
C213        C  0.45552146  0.16644499  0.92749786    -0.17980
C214        C  0.43054626  0.19616354  0.90481696     0.10350
C215        C  0.41999762  0.18868520  0.86227852    -0.06780
C216        C  0.43955733  0.15508050  0.84180273    -0.18010
C217        C  0.46308171  0.12486176  0.86466324     0.10380
S218        S  0.40833093  0.23964660  0.93294667    -0.32980
S219        S  0.48257016  0.07992744  0.83693962    -0.32980
H220        H  0.51951686  0.07316317  0.86333201     0.28390
H221        H  0.40105944  0.26556088  0.89710924     0.28380
H222        H  0.46161907  0.17059062  0.96084797     0.18970
H223        H  0.43226903  0.14985324  0.80872262     0.18980
C224        C  0.31641476  0.38261247  0.88167226    -0.06850
C225        C  0.33516997  0.41928921  0.86514811    -0.17980
C226        C  0.37054775  0.43885677  0.88534512     0.10350
C227        C  0.38571069  0.42418233  0.92593077    -0.06780
C228        C  0.36476624  0.38888153  0.94400686    -0.18010
C229        C  0.33077806  0.36780588  0.92208360     0.10380
S230        S  0.39890092  0.47802768  0.85350784    -0.32980
S231        S  0.30854624  0.32067690  0.94602466    -0.32980
H232        H  0.26929683  0.32037402  0.92195942     0.28390
H233        H  0.44097424  0.46068323  0.86102039     0.28380
H234        H  0.32624769  0.42956274  0.83330385     0.18970
H235        H  0.37575142  0.37688371  0.97459970     0.18980
C236        C  0.24839358  0.46509926  0.45428317    -0.06850
C237        C  0.28413526  0.45609657  0.42873122    -0.17980
C238        C  0.27934503  0.43106666  0.39358966     0.10350
C239        C  0.23873570  0.40954954  0.38589423    -0.06780
C240        C  0.20371134  0.41596718  0.41361734    -0.18010
C241        C  0.20735142  0.44488492  0.44630753     0.10380
S242        S  0.32524339  0.43364795  0.35781511    -0.32980
S243        S  0.15697132  0.45767420  0.47267318    -0.32980
H244        H  0.16744614  0.49963570  0.48014758     0.28390
H245        H  0.29902331  0.44834465  0.32369937     0.28380
H246        H  0.31498575  0.47274274  0.43346318     0.18970
H247        H  0.17232982  0.40063980  0.40807247     0.18980
C248        C  0.25841595  0.04366575  0.45410566    -0.06850
C249        C  0.23211255  0.04623359  0.41745422    -0.17980
C250        C  0.24421155  0.07058314  0.38254112     0.10350
C251        C  0.27881121  0.10038169  0.38571938    -0.06780
C252        C  0.30344872  0.10107308  0.42339929    -0.18010
C253        C  0.29485383  0.07193396  0.45685971     0.10380
S254        S  0.21716666  0.05759154  0.33338513    -0.32980
S255        S  0.33331792  0.06975926  0.50020121    -0.32980
H256        H  0.34651139  0.11183712  0.49675507     0.28390
H257        H  0.25535198  0.06308564  0.30879408     0.28380
H258        H  0.20456275  0.02497876  0.41368593     0.18970
H259        H  0.33017697  0.12344558  0.42611215     0.18980
C260        C  0.27295126  0.39364247  0.60636581    -0.06850
C261        C  0.23106926  0.41277870  0.60275992    -0.17980
C262        C  0.22236506  0.44536224  0.57403763     0.10350
C263        C  0.25523403  0.45809278  0.54535226    -0.06780
C264        C  0.29451323  0.43457909  0.54384009    -0.18010
C265        C  0.30475883  0.40427002  0.57545612     0.10380
S266        S  0.16978046  0.47175826  0.57669307    -0.32980
S267        S  0.36009334  0.38453664  0.57708002    -0.32980
H268        H  0.36791918  0.39924249  0.61803701     0.28390
H269        H  0.14826608  0.44245305  0.60326317     0.28380
H270        H  0.20518485  0.40440149  0.62461994     0.18970
H271        H  0.31970767  0.44363648  0.52131418     0.18980
C272        C  0.24811392  0.03693416  0.55185467    -0.06850
C273        C  0.20976343  0.06187798  0.54856490    -0.17980
C274        C  0.19684739  0.08817305  0.58168970     0.10350
C275        C  0.22452099  0.09232486  0.61738745    -0.06780
C276        C  0.26324439  0.06814752  0.61957739    -0.18010
C277        C  0.27518272  0.04091668  0.58824435     0.10380
S278        S  0.14377023  0.11288554  0.57961931    -0.32980
S279        S  0.32553395  0.01215822  0.59873311    -0.32980
H280        H  0.33682794  0.00571846  0.55671883     0.28390
H281        H  0.12885745  0.09455689  0.54209164     0.28380
H282        H  0.18803060  0.05804160  0.52165289     0.18970
H283        H  0.28507905  0.06969919  0.64677057     0.18980
C284        C  0.45802124  0.25176088  0.45661883    -0.06850
C285        C  0.46250665  0.29225105  0.43834636    -0.17980
C286        C  0.43319490  0.30713524  0.40715430     0.10350
C287        C  0.39744271  0.28179697  0.39522975    -0.06780
C288        C  0.38906679  0.24452359  0.41829256    -0.18010
C289        C  0.41905497  0.22873201  0.44830418     0.10380
S290        S  0.44594261  0.35615379  0.38074480    -0.32980
S291        S  0.40535510  0.17845688  0.47196412    -0.32980
H292        H  0.44588032  0.16930940  0.49115420     0.28390
H293        H  0.44148221  0.34062631  0.33973042     0.28380
H294        H  0.49127832  0.31099988  0.44574302     0.18970
H295        H  0.36078911  0.22542062  0.40993759     0.18980
C296        C  0.03689296  0.23020319  0.45056859    -0.06850
C297        C  0.06972040  0.26128812  0.44989771    -0.17980
C298        C  0.10598732  0.25848380  0.42316593     0.10350
C299        C  0.10860023  0.22508555  0.39467562    -0.06780
C300        C  0.07628964  0.19390002  0.39550394    -0.18010
C301        C  0.04057574  0.19614959  0.42284461     0.10380
S302        S  0.14790115  0.29849238  0.42706674    -0.32980
S303        S  0.00022061  0.15508287  0.41956757    -0.32980
H304        H  0.00745024  0.14119270  0.46143012     0.28390
H305        H  0.18286954  0.27333721  0.41362841     0.28380
H306        H  0.06723246  0.28781954  0.47041782     0.18970
H307        H  0.07760626  0.16870606  0.37319304     0.18980
C308        C  0.46263370  0.22349132  0.54934830    -0.06850
C309        C  0.42606179  0.25032157  0.54911897    -0.17980
C310        C  0.39045775  0.24264843  0.57595298     0.10350
C311        C  0.39257998  0.20952656  0.60617734    -0.06780
C312        C  0.42789012  0.18170698  0.60555065    -0.18010
C313        C  0.46285250  0.18816374  0.57740764     0.10380
S314        S  0.34301698  0.27626706  0.57041518    -0.32980
S315        S  0.00816042  0.15172424  0.57918007    -0.32980
H316        H  0.98933553  0.12234155  0.60752176     0.28390
H317        H  0.31265243  0.24766218  0.58823000     0.28380
H318        H  0.42527272  0.27769994  0.52837042     0.18970
H319        H  0.42955664  0.15668680  0.62915892     0.18980
C320        C  0.10480017  0.27701830  0.60351108    -0.06850
C321        C  0.11385610  0.24381576  0.57665586    -0.17980
C322        C  0.08265993  0.22970332  0.54738474     0.10350
C323        C  0.04106938  0.24978473  0.54437971    -0.06780
C324        C  0.03455733  0.28636309  0.56763408    -0.18010
C325        C  0.06555650  0.29979956  0.59748073     0.10380
S326        S  0.09861950  0.18523581  0.51709757    -0.32980
S327        S  0.05123510  0.34355732  0.62947981    -0.32980
H328        H  0.06366751  0.32441045  0.66816644     0.28390
H329        H  0.05626679  0.17022790  0.50863522     0.28380
H330        H  0.14428482  0.22641748  0.58099358     0.18970
H331        H  0.00356708  0.30302226  0.56464963     0.18980
C332        C  0.50143067  0.73301561  0.52169515    -0.00160
C333        C  0.99784978  0.73433331  0.47854711    -0.00160
C334        C  0.25302683  0.00025319  0.52344937    -0.00160
C335        C  0.25308717  0.50356445  0.48029635    -0.00160
C336        C  0.13013534  0.77798594  0.64331150     0.41730
N337        N  0.15890613  0.75337243  0.70024293     0.00620
C338        C  0.32768895  0.82899183  0.82495182    -0.07260
H339        H  0.34839874  0.83340107  0.65025606     0.06110
C340        C  0.34272891  0.67758836  0.66850685    -0.07610
Co341      Co  0.21647844  0.81409619  0.74742272     0.74180
N342        N  0.29917684  0.82082288  0.69802561    -0.26780
Co343      Co  0.32282342  0.77804021  0.74509527     0.74070
C344        C  0.36565756  0.71086066  0.64444499     0.41830
N345        N  0.24039907  0.65555230  0.70720354     0.00240
N346        N  0.33921075  0.73635367  0.70030815     0.00340
N347        N  0.25906783  0.85590379  0.82856365    -0.47630
H348        H  0.16015285  0.84348963  0.65399544     0.06100
N349        N  0.25855403  0.83418448  0.70177605     0.00630
N350        N  0.34481748  0.73561893  0.79170457     0.00370
C351        C  0.37976107  0.70526302  0.84274355     0.41970
N352        N  0.19940237  0.66830809  0.70288261    -0.26240
C353        C  0.15274100  0.81748932  0.81857829    -0.07160
N354        N  0.13414159  0.74340223  0.66764552    -0.47350
N355        N  0.37799749  0.74068637  0.81869390    -0.47570
C356        C  0.11644747  0.79221535  0.83387752     0.41750
N357        N  0.26330540  0.83217696  0.79462580     0.00620
N358        N  0.19641465  0.67183673  0.79581899    -0.26260
N359        N  0.17219997  0.79284587  0.69957431    -0.26760
N360        N  0.23711574  0.65730349  0.79881164     0.00250
H361        H  0.13696896  0.66004730  0.83093925     0.06140
H362        H  0.34003240  0.64456071  0.83528968     0.06180
N363        N  0.30363360  0.81724052  0.79186414    -0.26800
N364        N  0.32644487  0.69679943  0.70259075    -0.26420
N365        N  0.15441344  0.75604384  0.79118000     0.00620
C366        C  0.27930567  0.86504716  0.64415354     0.42020
C367        C  0.18206250  0.64856706  0.66887314    -0.07670
N368        N  0.32666692  0.69825121  0.79545192    -0.26420
H369        H  0.33752631  0.64523249  0.66048243     0.06160
N370        N  0.24600342  0.85992962  0.67128643    -0.47640
H371        H  0.14864374  0.65233293  0.65732958     0.06150
C372        C  0.20148958  0.62705689  0.84967183     0.41850
C373        C  0.15498398  0.81140030  0.66431022    -0.07170
Co374      Co  0.17618740  0.71195976  0.74746179     0.73820
N375        N  0.25239354  0.62869167  0.67898173    -0.47360
C376        C  0.29835165  0.85357525  0.84998147     0.42120
N377        N  0.11870983  0.75441645  0.81531322    -0.47350
Co378      Co  0.28320716  0.67608586  0.75160117     0.73890
C379        C  0.34580086  0.67719121  0.82721144    -0.07670
C380        C  0.31569440  0.83878121  0.66215170    -0.07240
N381        N  0.17335402  0.79323126  0.79184793    -0.26760
N382        N  0.36260475  0.74587824  0.66660223    -0.47530
H383        H  0.36193377  0.82133660  0.83084116     0.06120
C384        C  0.17186018  0.65487200  0.82654102    -0.07650
Cl385      Cl  0.24959281  0.74499370  0.74802043    -0.50650
C386        C  0.21829646  0.62181933  0.65298020     0.41880
H387        H  0.15857894  0.85068352  0.82191339     0.06090
N388        N  0.24145427  0.62929882  0.83045585    -0.47360
C389        C  0.13868880  0.72708064  0.35859969     0.41730
N390        N  0.16671698  0.75231155  0.30209889     0.00620
C391        C  0.32882894  0.66870206  0.17602182    -0.07260
H392        H  0.35504042  0.65930914  0.34469917     0.06110
C393        C  0.35266809  0.82015138  0.33145651    -0.07610
Co394      Co  0.21935715  0.69044629  0.25247551     0.74180
N395        N  0.30375471  0.67971926  0.30021636    -0.26780
Co396      Co  0.32705842  0.72264180  0.25266689     0.74070
C397        C  0.37598615  0.78564258  0.35349713     0.41830
N398        N  0.25145477  0.84759761  0.29457329     0.00240
N399        N  0.34737570  0.76342550  0.29659326     0.00340
N400        N  0.25820529  0.64588231  0.17095319    -0.47630
H401        H  0.16371663  0.66066478  0.34460477     0.06100
N402        N  0.26184135  0.66926148  0.29772976     0.00630
N403        N  0.34765001  0.76525897  0.20534399     0.00370
C404        C  0.37881970  0.79515681  0.15212291     0.41970
N405        N  0.21005641  0.83613256  0.29936305    -0.26240
C406        C  0.15350808  0.68976910  0.18209088    -0.07160
N407        N  0.14328236  0.76217807  0.33518903    -0.47350
N408        N  0.37813818  0.75963018  0.17620003    -0.47570
C409        C  0.11695024  0.71572960  0.16852129     0.41750
N410        N  0.26388226  0.67025842  0.20445469     0.00620
N411        N  0.20183224  0.83338575  0.20684955    -0.26260
N412        N  0.17780206  0.71240995  0.30118799    -0.26760
N413        N  0.24257420  0.84760796  0.20268918     0.00250
H414        H  0.14064685  0.84502671  0.17376402     0.06140
H415        H  0.34190230  0.85656370  0.16213386     0.06180
N416        N  0.30503559  0.68338670  0.20736126    -0.26800
N417        N  0.33546063  0.80314234  0.29614522    -0.26420
N418        N  0.15765816  0.75038297  0.21118928     0.00620
C419        C  0.28364660  0.63318490  0.35176461     0.42020
C420        C  0.19485382  0.85620185  0.33366155    -0.07670
N421        N  0.33059845  0.80313986  0.20285090    -0.26420
H422        H  0.34779849  0.85161844  0.34163840     0.06160
N423        N  0.24891252  0.64297779  0.32747353    -0.47640
H424        H  0.16179660  0.85365751  0.34601889     0.06150
C425        C  0.20421391  0.87813611  0.15314989     0.41850
C426        C  0.16046098  0.69339985  0.33577677    -0.07170
Co427      Co  0.18305904  0.79345759  0.25503075     0.73820
N428        N  0.26580295  0.87364323  0.32304729    -0.47360
C429        C  0.29837770  0.64418727  0.15161180     0.42120
N430        N  0.12086005  0.75297586  0.18806551    -0.47350
Co431      Co  0.29080666  0.82637216  0.24848002     0.73890
C432        C  0.34750112  0.82386900  0.16996347    -0.07670
C433        C  0.32101948  0.65823044  0.33416740    -0.07240
N434        N  0.17574416  0.71304576  0.20899304    -0.26760
N435        N  0.37116487  0.75195713  0.32968331    -0.47530
H436        H  0.36348448  0.67486344  0.17078374     0.06120
C437        C  0.17575649  0.85036776  0.17710627    -0.07650
Cl438      Cl  0.25500189  0.75828996  0.25195844    -0.50650
C439        C  0.23281818  0.88131875  0.34927624     0.41880
H440        H  0.15834731  0.65657571  0.17797636     0.06090
N441        N  0.24541123  0.87572166  0.17086710    -0.47360
O442        O  0.03946017  0.90236214  0.96828268    -0.80860
O443        O  0.03680664  0.60663074  0.03613266    -0.80890
O444        O  0.05051317  0.52864036  0.92901172    -0.80890
O445        O  0.04908683  0.97891534  0.07725090    -0.80840
O446        O  0.07369679  0.54393034  0.99344669    -0.80960
O447        O  0.07307107  0.96491494  0.01301758    -0.80880
O448        O  0.01330317  0.56237050  0.08566654    -0.80860
O449        O  0.01498085  0.94588518  0.91820723    -0.80900
C450        C  0.03224142  0.91013652  0.92986316     1.08830
C451        C  0.02937916  0.59866345  0.07438020     1.08710
C452        C  0.08119141  0.54018230  0.95419662     1.08850
C453        C  0.07994904  0.96794499  0.05253434     1.08730
O454        O  0.50857734  0.91200329  0.04078196    -0.80860
O455        O  0.51073571  0.59621081  0.96191948    -0.80940
O456        O  0.43010637  0.98290100  0.93719279    -0.80880
O457        O  0.42867157  0.52661984  0.06618739    -0.80860
O458        O  0.45122187  0.58006032  0.02760298    -0.80910
O459        O  0.45278763  0.92647319  0.97059370    -0.80870
O460        O  0.45749512  0.94813984  0.07002251    -0.80830
O461        O  0.45939339  0.55968808  0.93315279    -0.80900
Co462      Co  0.01423127  0.94913386  0.99092380     1.51530
Co463      Co  0.01369952  0.55899883  0.01234515     1.51690
Co464      Co  0.98911562  0.00486328  0.93560326     1.51570
Co465      Co  0.98771850  0.50327081  0.06857385     1.51470
O466        O  0.98986746  0.50376364  0.00189463    -1.42800
C467        C  0.47696693  0.91398453  0.06543406     1.08750
C468        C  0.48034956  0.59338994  0.93549301     1.08840
C469        C  0.42397032  0.94532733  0.94712047     1.08780
C470        C  0.42140499  0.56246677  0.05050763     1.08760
C471        C  0.18712973  0.90666866  0.11908728    -0.06850
C472        C  0.17605108  0.94789502  0.12934269    -0.17980
C473        C  0.14401618  0.97068108  0.10587369     0.10350
C474        C  0.12235064  0.95203537  0.07115957    -0.06780
C475        C  0.13668365  0.91243596  0.05863866    -0.18010
C476        C  0.16817501  0.88959724  0.08226830     0.10380
S477        S  0.13087938  0.02255349  0.12303699    -0.32980
S478        S  0.17903632  0.83668350  0.06658984    -0.32980
H479        H  0.22070303  0.83356704  0.08632698     0.28390
H480        H  0.11300773  0.03706320  0.08433868     0.28380
H481        H  0.18966781  0.96118406  0.15784378     0.18970
H482        H  0.12045498  0.89746853  0.03228540     0.18980
C483        C  0.07630809  0.69658614  0.15224590    -0.06850
C484        C  0.06337808  0.65842503  0.17170523    -0.17980
C485        C  0.04461602  0.62625665  0.14824668     0.10350
C486        C  0.03795131  0.63276351  0.10444114    -0.06780
C487        C  0.04348885  0.67366805  0.08722487    -0.18010
C488        C  0.06246997  0.70556167  0.11073237     0.10380
S489        S  0.03523569  0.57678166  0.17505487    -0.32980
S490        S  0.07402348  0.75495285  0.08443734    -0.32980
H491        H  0.07419338  0.77846082  0.12143652     0.28390
H492        H  0.99134311  0.57372940  0.16051009     0.28380
H493        H  0.07302513  0.65175033  0.20423691     0.18970
H494        H  0.03584135  0.68032123  0.05424855     0.18980
C495        C  0.31278986  0.62253905  0.11282184    -0.06850
C496        C  0.33960241  0.64618290  0.08496511    -0.17980
C497        C  0.37328461  0.62772239  0.06152776     0.10350
C498        C  0.37951892  0.58384131  0.06377699    -0.06780
C499        C  0.34801313  0.55984442  0.08682234    -0.18010
C500        C  0.31533093  0.57859439  0.11143204     0.10380
S501        S  0.41060579  0.66267524  0.03454927    -0.32980
S502        S  0.28199388  0.54509712  0.14480735    -0.32980
H503        H  0.24460892  0.57100599  0.14244451     0.28390
H504        H  0.44595080  0.65262701  0.06200979     0.28380
H505        H  0.33805399  0.68003876  0.08560938     0.18970
H506        H  0.35088287  0.52606734  0.08857058     0.18980
C507        C  0.41750562  0.81158526  0.13016986    -0.06850
C508        C  0.44352988  0.83985895  0.15288072    -0.17980
C509        C  0.46547843  0.87259115  0.13217524     0.10350
C510        C  0.46229514  0.87625015  0.08791124    -0.06780
C511        C  0.44137387  0.84480159  0.06486968    -0.18010
C512        C  0.41861645  0.81246385  0.08573862     0.10380
S513        S  0.49368587  0.91067440  0.16387400    -0.32980
S514        S  0.38726685  0.77635607  0.05443057    -0.32980
H515        H  0.38453656  0.74501815  0.08621737     0.28390
H516        H  0.52707119  0.91919949  0.13433246     0.28380
H517        H  0.44254768  0.83931837  0.18713807     0.18970
H518        H  0.43991798  0.84721110  0.03066276     0.18980
C519        C  0.04206318  0.87624224  0.90013762    -0.06850
C520        C  0.04863139  0.83556729  0.91764753    -0.17980
C521        C  0.06637868  0.80351881  0.89400488     0.10350
C522        C  0.07729919  0.81180805  0.85176204    -0.06780
C523        C  0.06347897  0.84971952  0.83233407    -0.17950
C524        C  0.04724989  0.88249576  0.85620794     0.10380
S525        S  0.08007249  0.75484347  0.92080242    -0.32980
S526        S  0.03931715  0.93232627  0.82956746    -0.32980
H527        H  0.06801445  0.95361393  0.85693910     0.28390
H528        H  0.07699561  0.73040114  0.88452943     0.28380
H529        H  0.04254778  0.82911823  0.95085010     0.18970
H530        H  0.07133149  0.85598423  0.79942559     0.18980
C531        C  0.12415367  0.55382960  0.93505876    -0.06850
C532        C  0.13513345  0.53789960  0.89537743    -0.17980
C533        C  0.16562156  0.55824976  0.86876468     0.10350
C534        C  0.18597579  0.59575343  0.88152897    -0.06780
C535        C  0.17846525  0.60951233  0.92260910    -0.18010
C536        C  0.14862867  0.58869469  0.94970968     0.10380
S537        S  0.17278916  0.53789864  0.81664943    -0.32980
S538        S  0.13958870  0.61154547  0.00030899    -0.32980
H539        H  0.14478767  0.57313660  0.02234195     0.28390
H540        H  0.21617656  0.55275973  0.81166616     0.28380
H541        H  0.11741413  0.51103330  0.88356298     0.18970
H542        H  0.19338795  0.63859769  0.93254312     0.18980
C543        C  0.46827952  0.62921581  0.90852017    -0.06850
C544        C  0.45552145  0.66644503  0.92749786    -0.17980
C545        C  0.43054628  0.69616361  0.90481697     0.10350
C546        C  0.41999765  0.68868530  0.86227852    -0.06780
C547        C  0.43955734  0.65508060  0.84180272    -0.18010
C548        C  0.46308169  0.62486183  0.86466323     0.10380
S549        S  0.40833097  0.73964668  0.93294668    -0.32980
S550        S  0.48257011  0.57992750  0.83693960    -0.32980
H551        H  0.51951681  0.57316321  0.86333198     0.28390
H552        H  0.40105950  0.76556097  0.89710925     0.28380
H553        H  0.46161905  0.67059065  0.96084797     0.18970
H554        H  0.43226905  0.64985335  0.80872260     0.18980
C555        C  0.31641470  0.88261252  0.88167230    -0.06850
C556        C  0.33516992  0.91928926  0.86514815    -0.17980
C557        C  0.37054772  0.93885680  0.88534515     0.10350
C558        C  0.38571067  0.92418233  0.92593079    -0.06780
C559        C  0.36476620  0.88888155  0.94400689    -0.18010
C560        C  0.33077801  0.86780592  0.92208363     0.10380
S561        S  0.39890091  0.97802769  0.85350786    -0.32980
S562        S  0.30854617  0.82067694  0.94602469    -0.32980
H563        H  0.26929675  0.82037408  0.92195945     0.28390
H564        H  0.44097423  0.96068321  0.86102040     0.28380
H565        H  0.32624764  0.92956280  0.83330389     0.18970
H566        H  0.37575138  0.87688372  0.97459972     0.18980
C567        C  0.24839329  0.96509931  0.45428312    -0.06850
C568        C  0.28413503  0.95609662  0.42873125    -0.17980
C569        C  0.27934487  0.93106669  0.39358969     0.10350
C570        C  0.23873556  0.90954958  0.38589419    -0.06780
C571        C  0.20371114  0.91596723  0.41361723    -0.18010
C572        C  0.20735115  0.94488498  0.44630741     0.10380
S573        S  0.32524331  0.93364796  0.35781524    -0.32980
S574        S  0.15697098  0.95767429  0.47267294    -0.32980
H575        H  0.16744581  0.99963578  0.48014740     0.28390
H576        H  0.29902333  0.94834469  0.32369946     0.28380
H577        H  0.31498550  0.97274279  0.43346328     0.18970
H578        H  0.17232962  0.90063986  0.40807230     0.18980
C579        C  0.25841630  0.54366569  0.45410568    -0.06850
C580        C  0.23211279  0.54623359  0.41745432    -0.17980
C581        C  0.24421171  0.57058318  0.38254122     0.10350
C582        C  0.27881142  0.60038170  0.38571943    -0.06780
C583        C  0.30344908  0.60107297  0.42339926    -0.18010
C584        C  0.29485426  0.57193380  0.45685966     0.10380
S585        S  0.21716665  0.55759167  0.33338529    -0.32980
S586        S  0.33331853  0.56975887  0.50020101    -0.32980
H587        H  0.34651241  0.61183660  0.49675475     0.28390
H588        H  0.25535192  0.56308571  0.30879416     0.28380
H589        H  0.20456296  0.52497879  0.41368609     0.18970
H590        H  0.33017739  0.62344542  0.42611207     0.18980
C591        C  0.27295109  0.89364248  0.60636574    -0.06850
C592        C  0.23106903  0.91277859  0.60275981    -0.17980
C593        C  0.22236477  0.94536212  0.57403751     0.10350
C594        C  0.25523374  0.95809275  0.54535218    -0.06780
C595        C  0.29451299  0.93457913  0.54384002    -0.18010
C596        C  0.30475864  0.90427009  0.57545606     0.10380
S597        S  0.16978010  0.97175800  0.57669289    -0.32980
S598        S  0.36009321  0.88453686  0.57708002    -0.32980
H599        H  0.36791897  0.89924268  0.61803702     0.28390
H600        H  0.14826575  0.94245271  0.60326293     0.28380
H601        H  0.20518463  0.90440132  0.62461981     0.18970
H602        H  0.31970742  0.94363657  0.52131412     0.18980
C603        C  0.24811430  0.53693422  0.55185464    -0.06850
C604        C  0.20976386  0.56187810  0.54856478    -0.17980
C605        C  0.19684778  0.58817320  0.58168954     0.10350
C606        C  0.22452129  0.59232496  0.61738736    -0.06780
C607        C  0.26324467  0.56814759  0.61957738    -0.18010
C608        C  0.27518304  0.54091674  0.58824437     0.10380
S609        S  0.14377069  0.61288580  0.57961900    -0.32980
S610        S  0.32553422  0.51215822  0.59873324    -0.32980
H611        H  0.33682824  0.50571836  0.55671899     0.28390
H612        H  0.12885798  0.59455718  0.54209129     0.28380
H613        H  0.18803110  0.55804175  0.52165272     0.18970
H614        H  0.28507926  0.56969925  0.64677061     0.18980
C615        C  0.45802123  0.75176108  0.45661881    -0.06850
C616        C  0.46250666  0.79225124  0.43834632    -0.17980
C617        C  0.43319491  0.80713544  0.40715428     0.10350
C618        C  0.39744270  0.78179718  0.39522975    -0.06780
C619        C  0.38906676  0.74452382  0.41829259    -0.18010
C620        C  0.41905495  0.72873223  0.44830419     0.10380
S621        S  0.44594264  0.85615396  0.38074474    -0.32980
S622        S  0.40535506  0.67845712  0.47196416    -0.32980
H623        H  0.44588032  0.66930959  0.49115415     0.28390
H624        H  0.44148220  0.84062647  0.33973037     0.28380
H625        H  0.49127835  0.81100006  0.44574296     0.18970
H626        H  0.36078907  0.72542086  0.40993764     0.18980
C627        C  0.03689296  0.73020336  0.45056856    -0.06850
C628        C  0.06972043  0.76128826  0.44989770    -0.17980
C629        C  0.10598737  0.75848390  0.42316594     0.10350
C630        C  0.10860027  0.72508563  0.39467566    -0.06780
C631        C  0.07628965  0.69390014  0.39550394    -0.18010
C632        C  0.04057573  0.69614975  0.42284458     0.10380
S633        S  0.14790124  0.79849244  0.42706677    -0.32980
S634        S  0.00022054  0.65508309  0.41956750    -0.32980
H635        H  0.00745023  0.64119281  0.46143000     0.28390
H636        H  0.18286961  0.77333725  0.41362845     0.28380
H637        H  0.06723250  0.78781968  0.47041779     0.18970
H638        H  0.07760625  0.66870617  0.37319305     0.18980
C639        C  0.46263370  0.72349149  0.54934828    -0.06850
C640        C  0.42606181  0.75032175  0.54911897    -0.17980
C641        C  0.39045777  0.74264861  0.57595298     0.10350
C642        C  0.39258000  0.70952674  0.60617733    -0.06780
C643        C  0.42789013  0.68170714  0.60555061    -0.18010
C644        C  0.46285249  0.68816390  0.57740759     0.10380
S645        S  0.34301700  0.77626725  0.57041519    -0.32980
S646        S  0.00816039  0.65172436  0.57917998    -0.32980
H647        H  0.98933548  0.62234166  0.60752164     0.28390
H648        H  0.31265245  0.74766237  0.58823001     0.28380
H649        H  0.42527273  0.77770013  0.52837042     0.18970
H650        H  0.42955664  0.65668695  0.62915887     0.18980
C651        C  0.10480019  0.77701839  0.60351106    -0.06850
C652        C  0.11385610  0.74381586  0.57665583    -0.17980
C653        C  0.08265993  0.72970344  0.54738470     0.10350
C654        C  0.04106939  0.74978488  0.54437968    -0.06780
C655        C  0.03455737  0.78636323  0.56763405    -0.18010
C656        C  0.06555654  0.79979968  0.59748071     0.10380
S657        S  0.09861946  0.68523593  0.51709751    -0.32980
S658        S  0.05123516  0.84355743  0.62947981    -0.32980
H659        H  0.06366750  0.82441051  0.66816644     0.28390
H660        H  0.05626675  0.67022805  0.50863515     0.28380
H661        H  0.14428482  0.72641756  0.58099354     0.18970
H662        H  0.00356713  0.80302242  0.56464961     0.18980
C663        C  0.00143066  0.23301544  0.52169518    -0.00160
C664        C  0.49784978  0.23433312  0.47854714    -0.00160
C665        C  0.75302718  0.50025319  0.52344940    -0.00160
C666        C  0.75308682  0.00356450  0.48029632    -0.00160
C667        C  0.63013532  0.27798587  0.64331153     0.41730
N668        N  0.65890608  0.25337238  0.70024298     0.00620
C669        C  0.82768899  0.32899174  0.82495181    -0.07260
H670        H  0.84839883  0.33340097  0.65025612     0.06110
C671        C  0.84272883  0.17758821  0.66850685    -0.07610
Co672      Co  0.71647846  0.31409613  0.74742272     0.74180
N673        N  0.79917688  0.32082276  0.69802561    -0.26780
Co674      Co  0.82282342  0.27804009  0.74509527     0.74070
C675        C  0.86565752  0.21086050  0.64444499     0.41830
N676        N  0.74039895  0.15555222  0.70720358     0.00240
N677        N  0.83921072  0.23635353  0.70030815     0.00340
N678        N  0.75906789  0.35590374  0.82856362    -0.47630
H679        H  0.66015291  0.34348954  0.65399541     0.06100
N680        N  0.75855406  0.33418437  0.70177603     0.00630
N681        N  0.84481746  0.23561881  0.79170456     0.00370
C682        C  0.87976104  0.20526290  0.84274354     0.41970
N683        N  0.69940225  0.16830803  0.70288270    -0.26240
C684        C  0.65274103  0.31748934  0.81857829    -0.07160
N685        N  0.63414153  0.24340218  0.66764559    -0.47350
N686        N  0.87799747  0.24068625  0.81869390    -0.47570
C687        C  0.61644749  0.29221538  0.83387754     0.41750
N688        N  0.76330544  0.33217689  0.79462578     0.00620
N689        N  0.69641461  0.17183670  0.79581906    -0.26260
N690        N  0.67219997  0.29284581  0.69957432    -0.26760
N691        N  0.73711570  0.15730344  0.79881168     0.00250
H692        H  0.63696895  0.16004731  0.83093938     0.06140
H693        H  0.84003237  0.14456059  0.83528968     0.06180
N694        N  0.80363363  0.31724043  0.79186414    -0.26800
N695        N  0.82644480  0.19679930  0.70259075    -0.26420
N696        N  0.65441344  0.25604383  0.79118005     0.00620
C697        C  0.77930576  0.36504707  0.64415356     0.42020
C698        C  0.68206232  0.14856700  0.66887326    -0.07670
N699        N  0.82666690  0.19825109  0.79545192    -0.26420
H700        H  0.83752620  0.14523235  0.66048244     0.06160
N701        N  0.74600349  0.35992952  0.67128642    -0.47640
H702        H  0.64864355  0.15233288  0.65732975     0.06150
C703        C  0.70148957  0.12705686  0.84967190     0.41850
C704        C  0.65498399  0.31140023  0.66431022    -0.07170
Co705      Co  0.67618736  0.21195973  0.74746186     0.73820
N706        N  0.75239336  0.12869156  0.67898177    -0.47360
C707        C  0.79835170  0.35357519  0.84998145     0.42120
N708        N  0.61870984  0.25441647  0.81531327    -0.47350
Co709      Co  0.78320709  0.17608576  0.75160118     0.73890
C710        C  0.84580084  0.17719109  0.82721144    -0.07670
C711        C  0.81569447  0.33878110  0.66215173    -0.07240
N712        N  0.67335404  0.29323125  0.79184795    -0.26760
N713        N  0.86260473  0.24587808  0.66660224    -0.47530
H714        H  0.86193381  0.32133650  0.83084115     0.06120
C715        C  0.67186016  0.15487199  0.82654112    -0.07650
Cl716      Cl  0.74959279  0.24499362  0.74802044    -0.50650
C717        C  0.71829622  0.12181923  0.65298029     0.41880
H718        H  0.65857897  0.35068354  0.82191336     0.06090
N719        N  0.74145424  0.12929876  0.83045589    -0.47360
C720        C  0.63868875  0.22708059  0.35859964     0.41730
N721        N  0.66671694  0.25231154  0.30209887     0.00620
C722        C  0.82882887  0.16870207  0.17602174    -0.07260
H723        H  0.85504029  0.15930911  0.34469915     0.06110
C724        C  0.85266809  0.32015126  0.33145653    -0.07610
Co725      Co  0.71935708  0.19044629  0.25247542     0.74180
N726        N  0.80375461  0.17971921  0.30021629    -0.26780
Co727      Co  0.82705836  0.22264176  0.25266684     0.74070
C728        C  0.87598613  0.28564243  0.35349714     0.41830
N729        N  0.75145479  0.34759757  0.29457331     0.00240
N730        N  0.84737567  0.26342542  0.29659324     0.00340
N731        N  0.75820521  0.14588234  0.17095309    -0.47630
H732        H  0.66371655  0.16066473  0.34460465     0.06100
N733        N  0.76184126  0.16926143  0.29772966     0.00630
N734        N  0.84764998  0.26525896  0.20534396     0.00370
C735        C  0.87881971  0.29515682  0.15212292     0.41970
N736        N  0.71005643  0.33613254  0.29936309    -0.26240
C737        C  0.65350801  0.18976919  0.18209079    -0.07160
N738        N  0.64328233  0.26217803  0.33518902    -0.47350
N739        N  0.87813817  0.25963018  0.17620001    -0.47570
C740        C  0.61695017  0.21572969  0.16852125     0.41750
N741        N  0.76388219  0.17025843  0.20445460     0.00620
N742        N  0.70183223  0.33338578  0.20684958    -0.26260
N743        N  0.67780200  0.21240994  0.30118792    -0.26760
N744        N  0.74257419  0.34760798  0.20268920     0.00250
H745        H  0.64064684  0.34502678  0.17376407     0.06140
H746        H  0.84190232  0.35656372  0.16213391     0.06180
N747        N  0.80503552  0.18338670  0.20736118    -0.26800
N748        N  0.83546062  0.30314226  0.29614523    -0.26420
N749        N  0.65765810  0.25038303  0.21118926     0.00620
C750        C  0.78364646  0.13318487  0.35176453     0.42020
C751        C  0.69485387  0.35620184  0.33366161    -0.07670
N752        N  0.83059844  0.30313985  0.20285090    -0.26420
H753        H  0.84779851  0.35161832  0.34163846     0.06160
N754        N  0.74891241  0.14297774  0.32747342    -0.47640
H755        H  0.66179665  0.35365752  0.34601896     0.06150
C756        C  0.70421391  0.37813616  0.15314993     0.41850
C757        C  0.66046091  0.19339981  0.33577668    -0.07170
Co758      Co  0.68305901  0.29345761  0.25503076     0.73820
N759        N  0.76580301  0.37364317  0.32304731    -0.47360
C760        C  0.79837763  0.14418730  0.15161170     0.42120
N761        N  0.62085997  0.25297594  0.18806550    -0.47350
Co762      Co  0.79080666  0.32637213  0.24848003     0.73890
C763        C  0.84750113  0.32386901  0.16996349    -0.07670
C764        C  0.82101936  0.15823040  0.33416735    -0.07240
N765        N  0.67574410  0.21304582  0.20899297    -0.26760
N766        N  0.87116483  0.25195701  0.32968329    -0.47530
H767        H  0.86348442  0.17486343  0.17078367     0.06120
C768        C  0.67575648  0.35036782  0.17710632    -0.07650
Cl769      Cl  0.75500185  0.25828995  0.25195841    -0.50650
C770        C  0.73281826  0.38131872  0.34927628     0.41880
H771        H  0.65834724  0.15657579  0.17797625     0.06090
N772        N  0.74541123  0.37572167  0.17086712    -0.47360
O773        O  0.53946019  0.40236217  0.96828264    -0.80860
O774        O  0.53680664  0.10663073  0.03613268    -0.80890
O775        O  0.55051319  0.02864031  0.92901177    -0.80890
O776        O  0.54908684  0.47891534  0.07725087    -0.80840
O777        O  0.57369679  0.04393031  0.99344675    -0.80960
O778        O  0.57307109  0.46491497  0.01301755    -0.80880
O779        O  0.51330315  0.06237051  0.08566658    -0.80860
O780        O  0.51498084  0.44588522  0.91820720    -0.80900
C781        C  0.53224142  0.41013656  0.92986313     1.08830
C782        C  0.52937914  0.09866346  0.07438023     1.08710
C783        C  0.58119142  0.04018226  0.95419668     1.08850
C784        C  0.57994906  0.46794500  0.05253432     1.08730
O785        O  0.00857735  0.41200330  0.04078193    -0.80860
O786        O  0.01073573  0.09621078  0.96191949    -0.80940
O787        O  0.93010636  0.48290102  0.93719277    -0.80880
O788        O  0.92867155  0.02661984  0.06618741    -0.80860
O789        O  0.95122186  0.08006030  0.02760298    -0.80910
O790        O  0.95278765  0.42647321  0.97059368    -0.80870
O791        O  0.95749513  0.44813984  0.07002247    -0.80830
O792        O  0.95939342  0.05968805  0.93315282    -0.80900
Co793      Co  0.51423129  0.44913389  0.99092378     1.51530
Co794      Co  0.51369952  0.05899881  0.01234518     1.51690
Co795      Co  0.48911560  0.50486331  0.93560323     1.51570
Co796      Co  0.48771849  0.00327081  0.06857388     1.51470
O797        O  0.48986746  0.00376363  0.00189466    -1.42800
C798        C  0.97696694  0.41398453  0.06543403     1.08750
C799        C  0.98034959  0.09338990  0.93549303     1.08840
C800        C  0.92397033  0.44532734  0.94712045     1.08780
C801        C  0.92140498  0.06246677  0.05050763     1.08760
C802        C  0.68712974  0.40666869  0.11908729    -0.06850
C803        C  0.67605110  0.44789506  0.12934267    -0.17980
C804        C  0.64401621  0.47068111  0.10587365     0.10350
C805        C  0.62235066  0.45203538  0.07115955    -0.06780
C806        C  0.63668364  0.41243595  0.05863868    -0.18010
C807        C  0.66817500  0.38959724  0.08226833     0.10380
S808        S  0.63087944  0.52255355  0.12303691    -0.32980
S809        S  0.67903628  0.33668347  0.06658992    -0.32980
H810        H  0.72070298  0.33356702  0.08632705     0.28390
H811        H  0.61300776  0.53706322  0.08433859     0.28380
H812        H  0.68966786  0.46118412  0.15784374     0.18970
H813        H  0.62045496  0.39746850  0.03228544     0.18980
C814        C  0.57630800  0.19658622  0.15224588    -0.06850
C815        C  0.56337801  0.15842512  0.17170523    -0.17980
C816        C  0.54461597  0.12625671  0.14824669     0.10350
C817        C  0.53795127  0.13276354  0.10444115    -0.06780
C818        C  0.54348879  0.17366808  0.08722485    -0.18010
C819        C  0.56246988  0.20556172  0.11073234     0.10380
S820        S  0.53523566  0.07678173  0.17505491    -0.32980
S821        S  0.57402336  0.25495289  0.08443728    -0.32980
H822        H  0.57419332  0.27846088  0.12143645     0.28390
H823        H  0.49134309  0.07372943  0.16051012     0.28380
H824        H  0.57302505  0.15175044  0.20423692     0.18970
H825        H  0.53584129  0.18032123  0.05424853     0.18980
C826        C  0.81278980  0.12253906  0.11282176    -0.06850
C827        C  0.83960236  0.14618290  0.08496503    -0.17980
C828        C  0.87328459  0.12772239  0.06152771     0.10350
C829        C  0.87951890  0.08384131  0.06377697    -0.06780
C830        C  0.84801309  0.05984442  0.08682231    -0.18010
C831        C  0.81533087  0.07859440  0.11143197     0.10380
S832        S  0.91060579  0.16267523  0.03454924    -0.32980
S833        S  0.78199380  0.04509715  0.14480728    -0.32980
H834        H  0.74460884  0.07100601  0.14244441     0.28390
H835        H  0.94595079  0.15262699  0.06200979     0.28380
H836        H  0.83805395  0.18003877  0.08560929     0.18970
H837        H  0.85088283  0.02606735  0.08857056     0.18980
C838        C  0.91750562  0.31158528  0.13016987    -0.06850
C839        C  0.94352988  0.33985898  0.15288071    -0.17980
C840        C  0.96547843  0.37259117  0.13217522     0.10350
C841        C  0.96229516  0.37625015  0.08791122    -0.06780
C842        C  0.94137389  0.34480158  0.06486968    -0.18010
C843        C  0.91861646  0.31246384  0.08573862     0.10380
S844        S  0.99368586  0.41067444  0.16387397    -0.32980
S845        S  0.88726688  0.27635605  0.05443059    -0.32980
H846        H  0.88453660  0.24501814  0.08621739     0.28390
H847        H  0.02707119  0.41919951  0.13433243     0.28380
H848        H  0.94254767  0.33931842  0.18713807     0.18970
H849        H  0.93991800  0.34721107  0.03066275     0.18980
C850        C  0.54206318  0.37624229  0.90013758    -0.06850
C851        C  0.54863134  0.33556732  0.91764750    -0.17980
C852        C  0.56637864  0.30351885  0.89400486     0.10350
C853        C  0.57729920  0.31180810  0.85176203    -0.06780
C854        C  0.56347901  0.34971958  0.83233406    -0.17950
C855        C  0.54724992  0.38249582  0.85620792     0.10380
S856        S  0.58007242  0.25484350  0.92080240    -0.32980
S857        S  0.53931722  0.43232633  0.82956744    -0.32980
H858        H  0.56801449  0.45361398  0.85693911     0.28390
H859        H  0.57699552  0.23040118  0.88452941     0.28380
H860        H  0.54254770  0.32911826  0.95085005     0.18970
H861        H  0.57133156  0.35598429  0.79942558     0.18980
C862        C  0.62415369  0.05382955  0.93505883    -0.06850
C863        C  0.63513346  0.03789956  0.89537749    -0.17980
C864        C  0.66562157  0.05824973  0.86876474     0.10350
C865        C  0.68597579  0.09575340  0.88152904    -0.06780
C866        C  0.67846525  0.10951229  0.92260918    -0.18010
C867        C  0.64862869  0.08869464  0.94970976     0.10380
S868        S  0.67278916  0.03789862  0.81664949    -0.32980
S869        S  0.63958874  0.11154539  0.00030908    -0.32980
H870        H  0.64478769  0.07313651  0.02234202     0.28390
H871        H  0.71617657  0.05275969  0.81166623     0.28380
H872        H  0.61741415  0.01103325  0.88356304     0.18970
H873        H  0.69338796  0.13859764  0.93254320     0.18980
C874        C  0.96827956  0.12921577  0.90852017    -0.06850
C875        C  0.95552147  0.16644498  0.92749786    -0.17980
C876        C  0.93054626  0.19616354  0.90481696     0.10350
C877        C  0.91999762  0.18868520  0.86227852    -0.06780
C878        C  0.93955733  0.15508050  0.84180272    -0.18010
C879        C  0.96308172  0.12486176  0.86466324     0.10380
S880        S  0.90833093  0.23964660  0.93294666    -0.32980
S881        S  0.98257016  0.07992743  0.83693962    -0.32980
H882        H  0.01951686  0.07316317  0.86333201     0.28390
H883        H  0.90105944  0.26556088  0.89710924     0.28380
H884        H  0.96161907  0.17059062  0.96084796     0.18970
H885        H  0.93226903  0.14985324  0.80872261     0.18980
C886        C  0.81641477  0.38261247  0.88167226    -0.06850
C887        C  0.83516997  0.41928921  0.86514811    -0.17980
C888        C  0.87054775  0.43885677  0.88534512     0.10350
C889        C  0.88571069  0.42418232  0.92593077    -0.06780
C890        C  0.86476624  0.38888153  0.94400686    -0.18010
C891        C  0.83077807  0.36780588  0.92208360     0.10380
S892        S  0.89890092  0.47802768  0.85350784    -0.32980
S893        S  0.80854624  0.32067689  0.94602466    -0.32980
H894        H  0.76929683  0.32037401  0.92195942     0.28390
H895        H  0.94097424  0.46068323  0.86102038     0.28380
H896        H  0.82624769  0.42956274  0.83330384     0.18970
H897        H  0.87575142  0.37688371  0.97459970     0.18980
C898        C  0.74839359  0.46509926  0.45428316    -0.06850
C899        C  0.78413527  0.45609658  0.42873121    -0.17980
C900        C  0.77934503  0.43106667  0.39358965     0.10350
C901        C  0.73873571  0.40954954  0.38589423    -0.06780
C902        C  0.70371135  0.41596717  0.41361734    -0.18010
C903        C  0.70735143  0.44488491  0.44630753     0.10380
S904        S  0.82524338  0.43364796  0.35781510    -0.32980
S905        S  0.65697133  0.45767418  0.47267320    -0.32980
H906        H  0.66744614  0.49963568  0.48014760     0.28390
H907        H  0.79902330  0.44834466  0.32369936     0.28380
H908        H  0.81498575  0.47274275  0.43346317     0.18970
H909        H  0.67232983  0.40063978  0.40807248     0.18980
C910        C  0.75841595  0.04366576  0.45410565    -0.06850
C911        C  0.73211258  0.04623358  0.41745419    -0.17980
C912        C  0.74421160  0.07058312  0.38254109     0.10350
C913        C  0.77881124  0.10038170  0.38571938    -0.06780
C914        C  0.80344872  0.10107311  0.42339930    -0.18010
C915        C  0.79485381  0.07193398  0.45685973     0.10380
S916        S  0.71716677  0.05759151  0.33338508    -0.32980
S917        S  0.83331787  0.06975932  0.50020125    -0.32980
H918        H  0.84651127  0.11183721  0.49675514     0.28390
H919        H  0.75535210  0.06308565  0.30879406     0.28380
H920        H  0.70456280  0.02497874  0.41368588     0.18970
H921        H  0.83017695  0.12344562  0.42611218     0.18980
C922        C  0.77295126  0.39364247  0.60636581    -0.06850
C923        C  0.73106926  0.41277871  0.60275993    -0.17980
C924        C  0.72236507  0.44536225  0.57403764     0.10350
C925        C  0.75523403  0.45809278  0.54535226    -0.06780
C926        C  0.79451323  0.43457909  0.54384009    -0.18010
C927        C  0.80475882  0.40427001  0.57545612     0.10380
S928        S  0.66978047  0.47175827  0.57669308    -0.32980
S929        S  0.86009333  0.38453663  0.57708002    -0.32980
H930        H  0.86791919  0.39924247  0.61803700     0.28390
H931        H  0.64826608  0.44245307  0.60326319     0.28380
H932        H  0.70518486  0.40440150  0.62461995     0.18970
H933        H  0.81970766  0.44363647  0.52131418     0.18980
C934        C  0.74811390  0.03693416  0.55185467    -0.06850
C935        C  0.70976341  0.06187797  0.54856491    -0.17980
C936        C  0.69684737  0.08817304  0.58168972     0.10350
C937        C  0.72452097  0.09232485  0.61738745    -0.06780
C938        C  0.76324438  0.06814751  0.61957740    -0.18010
C939        C  0.77518271  0.04091668  0.58824435     0.10380
S940        S  0.64377020  0.11288552  0.57961933    -0.32980
S941        S  0.82553394  0.01215823  0.59873311    -0.32980
H942        H  0.83682793  0.00571847  0.55671883     0.28390
H943        H  0.62885742  0.09455687  0.54209166     0.28380
H944        H  0.68803058  0.05804160  0.52165290     0.18970
H945        H  0.78507903  0.06969918  0.64677057     0.18980
C946        C  0.95802123  0.25176088  0.45661883    -0.06850
C947        C  0.96250664  0.29225105  0.43834636    -0.17980
C948        C  0.93319490  0.30713525  0.40715431     0.10350
C949        C  0.89744270  0.28179698  0.39522975    -0.06780
C950        C  0.88906679  0.24452360  0.41829255    -0.18010
C951        C  0.91905497  0.22873201  0.44830418     0.10380
S952        S  0.94594260  0.35615380  0.38074481    -0.32980
S953        S  0.90535509  0.17845688  0.47196412    -0.32980
H954        H  0.94588031  0.16930941  0.49115420     0.28390
H955        H  0.94148221  0.34062633  0.33973043     0.28380
H956        H  0.99127831  0.31099989  0.44574303     0.18970
H957        H  0.86078911  0.22542063  0.40993758     0.18980
C958        C  0.53689297  0.23020319  0.45056860    -0.06850
C959        C  0.56972041  0.26128812  0.44989772    -0.17980
C960        C  0.60598734  0.25848380  0.42316593     0.10350
C961        C  0.60860024  0.22508555  0.39467563    -0.06780
C962        C  0.57628965  0.19390002  0.39550394    -0.18010
C963        C  0.54057575  0.19614959  0.42284461     0.10380
S964        S  0.64790117  0.29849237  0.42706675    -0.32980
S965        S  0.50022062  0.15508287  0.41956756    -0.32980
H966        H  0.50745025  0.14119269  0.46143011     0.28390
H967        H  0.68286955  0.27333721  0.41362842     0.28380
H968        H  0.56723247  0.28781954  0.47041782     0.18970
H969        H  0.57760627  0.16870605  0.37319304     0.18980
C970        C  0.96263369  0.22349132  0.54934830    -0.06850
C971        C  0.92606178  0.25032156  0.54911897    -0.17980
C972        C  0.89045774  0.24264842  0.57595298     0.10350
C973        C  0.89257997  0.20952656  0.60617734    -0.06780
C974        C  0.92789012  0.18170698  0.60555065    -0.18010
C975        C  0.96285249  0.18816374  0.57740764     0.10380
S976        S  0.84301696  0.27626705  0.57041517    -0.32980
S977        S  0.50816041  0.15172423  0.57918006    -0.32980
H978        H  0.48933553  0.12234155  0.60752175     0.28390
H979        H  0.81265242  0.24766216  0.58822999     0.28380
H980        H  0.92527270  0.27769993  0.52837042     0.18970
H981        H  0.92955664  0.15668680  0.62915892     0.18980
C982        C  0.60480017  0.27701830  0.60351109    -0.06850
C983        C  0.61385610  0.24381575  0.57665587    -0.17980
C984        C  0.58265994  0.22970331  0.54738474     0.10350
C985        C  0.54106938  0.24978473  0.54437971    -0.06780
C986        C  0.53455734  0.28636309  0.56763408    -0.18010
C987        C  0.56555650  0.29979956  0.59748073     0.10380
S988        S  0.59861951  0.18523580  0.51709757    -0.32980
S989        S  0.55123511  0.34355732  0.62947980    -0.32980
H990        H  0.56366751  0.32441046  0.66816644     0.28390
H991        H  0.55626680  0.17022790  0.50863522     0.28380
H992        H  0.64428482  0.22641747  0.58099359     0.18970
H993        H  0.50356709  0.30302226  0.56464963     0.18980
C994        C  0.00143067  0.73301560  0.52169515    -0.00160
C995        C  0.49784977  0.73433331  0.47854711    -0.00160
C996        C  0.75302682  0.00025319  0.52344936    -0.00160
C997        C  0.75308717  0.50356444  0.48029635    -0.00160
C998        C  0.63013534  0.77798595  0.64331149     0.41730
N999        N  0.65890613  0.75337243  0.70024292     0.00620
C1000       C  0.82768895  0.82899184  0.82495182    -0.07260
H1001       H  0.84839874  0.83340108  0.65025605     0.06110
C1002       C  0.84272891  0.67758836  0.66850685    -0.07610
Co1003     Co  0.71647843  0.81409619  0.74742272     0.74180
N1004       N  0.79917684  0.82082289  0.69802561    -0.26780
Co1005     Co  0.82282341  0.77804022  0.74509527     0.74070
C1006       C  0.86565756  0.71086067  0.64444498     0.41830
N1007       N  0.74039907  0.65555231  0.70720354     0.00240
N1008       N  0.83921075  0.73635367  0.70030814     0.00340
N1009       N  0.75906783  0.85590379  0.82856365    -0.47630
H1010       H  0.66015285  0.84348963  0.65399544     0.06100
N1011       N  0.75855403  0.83418449  0.70177604     0.00630
N1012       N  0.84481748  0.73561894  0.79170456     0.00370
C1013       C  0.87976107  0.70526302  0.84274354     0.41970
N1014       N  0.69940237  0.66830809  0.70288261    -0.26240
C1015       C  0.65274100  0.81748933  0.81857828    -0.07160
N1016       N  0.63414159  0.74340224  0.66764552    -0.47350
N1017       N  0.87799749  0.74068637  0.81869390    -0.47570
C1018       C  0.61644747  0.79221535  0.83387751     0.41750
N1019       N  0.76330540  0.83217696  0.79462579     0.00620
N1020       N  0.69641465  0.67183673  0.79581899    -0.26260
N1021       N  0.67219997  0.79284588  0.69957430    -0.26760
N1022       N  0.73711574  0.65730350  0.79881164     0.00250
H1023       H  0.63696896  0.66004730  0.83093924     0.06140
H1024       H  0.84003240  0.64456071  0.83528968     0.06180
N1025       N  0.80363360  0.81724053  0.79186414    -0.26800
N1026       N  0.82644487  0.69679943  0.70259075    -0.26420
N1027       N  0.65441344  0.75604384  0.79117999     0.00620
C1028       C  0.77930567  0.86504716  0.64415353     0.42020
C1029       C  0.68206250  0.64856707  0.66887313    -0.07670
N1030       N  0.82666692  0.69825122  0.79545192    -0.26420
H1031       H  0.83752631  0.64523250  0.66048243     0.06160
N1032       N  0.74600342  0.85992962  0.67128643    -0.47640
H1033       H  0.64864375  0.65233294  0.65732957     0.06150
C1034       C  0.70148958  0.62705689  0.84967182     0.41850
C1035       C  0.65498398  0.81140031  0.66431022    -0.07170
Co1036     Co  0.67618740  0.71195977  0.74746178     0.73820
N1037       N  0.75239355  0.62869167  0.67898172    -0.47360
C1038       C  0.79835164  0.85357526  0.84998147     0.42120
N1039       N  0.61870983  0.75441645  0.81531321    -0.47350
Co1040     Co  0.78320716  0.67608586  0.75160116     0.73890
C1041       C  0.84580086  0.67719121  0.82721144    -0.07670
C1042       C  0.81569440  0.83878122  0.66215169    -0.07240
N1043       N  0.67335402  0.79323126  0.79184793    -0.26760
N1044       N  0.86260475  0.74587825  0.66660223    -0.47530
H1045       H  0.86193377  0.82133661  0.83084116     0.06120
C1046       C  0.67186018  0.65487200  0.82654101    -0.07650
Cl1047     Cl  0.74959281  0.74499371  0.74802042    -0.50650
C1048       C  0.71829646  0.62181934  0.65298019     0.41880
H1049       H  0.65857893  0.85068352  0.82191338     0.06090
N1050       N  0.74145427  0.62929882  0.83045584    -0.47360
C1051       C  0.63868879  0.72708064  0.35859968     0.41730
N1052       N  0.66671697  0.75231155  0.30209888     0.00620
C1053       C  0.82882894  0.66870206  0.17602182    -0.07260
H1054       H  0.85504041  0.65930914  0.34469917     0.06110
C1055       C  0.85266809  0.82015137  0.33145651    -0.07610
Co1056     Co  0.71935714  0.69044629  0.25247551     0.74180
N1057       N  0.80375470  0.67971926  0.30021636    -0.26780
Co1058     Co  0.82705841  0.72264180  0.25266689     0.74070
C1059       C  0.87598614  0.78564257  0.35349713     0.41830
N1060       N  0.75145477  0.84759761  0.29457329     0.00240
N1061       N  0.84737570  0.76342550  0.29659326     0.00340
N1062       N  0.75820528  0.64588231  0.17095319    -0.47630
H1063       H  0.66371662  0.66066478  0.34460476     0.06100
N1064       N  0.76184134  0.66926148  0.29772976     0.00630
N1065       N  0.84765000  0.76525897  0.20534399     0.00370
C1066       C  0.87881970  0.79515681  0.15212292     0.41970
N1067       N  0.71005641  0.83613256  0.29936306    -0.26240
C1068       C  0.65350808  0.68976911  0.18209087    -0.07160
N1069       N  0.64328235  0.76217807  0.33518902    -0.47350
N1070       N  0.87813818  0.75963018  0.17620003    -0.47570
C1071       C  0.61695024  0.71572960  0.16852129     0.41750
N1072       N  0.76388226  0.67025842  0.20445469     0.00620
N1073       N  0.70183224  0.83338575  0.20684955    -0.26260
N1074       N  0.67780206  0.71240995  0.30118798    -0.26760
N1075       N  0.74257420  0.84760797  0.20268918     0.00250
H1076       H  0.64064685  0.84502672  0.17376403     0.06140
H1077       H  0.84190230  0.85656370  0.16213387     0.06180
N1078       N  0.80503558  0.68338670  0.20736126    -0.26800
N1079       N  0.83546063  0.80314233  0.29614522    -0.26420
N1080       N  0.65765815  0.75038298  0.21118928     0.00620
C1081       C  0.78364659  0.63318489  0.35176461     0.42020
C1082       C  0.69485382  0.85620185  0.33366156    -0.07670
N1083       N  0.83059845  0.80313986  0.20285091    -0.26420
H1084       H  0.84779849  0.85161844  0.34163840     0.06160
N1085       N  0.74891251  0.64297778  0.32747352    -0.47640
H1086       H  0.66179660  0.85365751  0.34601889     0.06150
C1087       C  0.70421391  0.87813612  0.15314990     0.41850
C1088       C  0.66046097  0.69339985  0.33577676    -0.07170
Co1089     Co  0.68305903  0.79345759  0.25503076     0.73820
N1090       N  0.76580295  0.87364323  0.32304729    -0.47360
C1091       C  0.79837770  0.64418727  0.15161180     0.42120
N1092       N  0.62086004  0.75297587  0.18806551    -0.47350
Co1093     Co  0.79080666  0.82637216  0.24848003     0.73890
C1094       C  0.84750112  0.82386900  0.16996348    -0.07670
C1095       C  0.82101947  0.65823044  0.33416740    -0.07240
N1096       N  0.67574416  0.71304577  0.20899304    -0.26760
N1097       N  0.87116486  0.75195713  0.32968332    -0.47530
H1098       H  0.86348448  0.67486344  0.17078374     0.06120
C1099       C  0.67575649  0.85036777  0.17710628    -0.07650
Cl1100     Cl  0.75500189  0.75828996  0.25195844    -0.50650
C1101       C  0.73281818  0.88131875  0.34927624     0.41880
H1102       H  0.65834730  0.65657571  0.17797636     0.06090
N1103       N  0.74541123  0.87572166  0.17086711    -0.47360
O1104       O  0.53946017  0.90236214  0.96828268    -0.80860
O1105       O  0.53680665  0.60663074  0.03613266    -0.80890
O1106       O  0.55051317  0.52864036  0.92901172    -0.80890
O1107       O  0.54908683  0.97891534  0.07725090    -0.80840
O1108       O  0.57369679  0.54393034  0.99344669    -0.80960
O1109       O  0.57307107  0.96491495  0.01301758    -0.80880
O1110       O  0.51330317  0.56237050  0.08566654    -0.80860
O1111       O  0.51498085  0.94588518  0.91820723    -0.80900
C1112       C  0.53224142  0.91013652  0.92986316     1.08830
C1113       C  0.52937916  0.59866345  0.07438020     1.08710
C1114       C  0.58119141  0.54018230  0.95419662     1.08850
C1115       C  0.57994904  0.96794499  0.05253435     1.08730
O1116       O  0.00857734  0.91200329  0.04078196    -0.80860
O1117       O  0.01073570  0.59621081  0.96191947    -0.80940
O1118       O  0.93010637  0.98290100  0.93719279    -0.80880
O1119       O  0.92867156  0.52661984  0.06618739    -0.80860
O1120       O  0.95122187  0.58006032  0.02760297    -0.80910
O1121       O  0.95278762  0.92647319  0.97059370    -0.80870
O1122       O  0.95749512  0.94813984  0.07002251    -0.80830
O1123       O  0.95939339  0.55968808  0.93315279    -0.80900
Co1124     Co  0.51423128  0.94913387  0.99092381     1.51530
Co1125     Co  0.51369952  0.55899883  0.01234515     1.51690
Co1126     Co  0.48911562  0.00486328  0.93560326     1.51570
Co1127     Co  0.48771850  0.50327081  0.06857385     1.51470
O1128       O  0.48986746  0.50376364  0.00189464    -1.42800
C1129       C  0.97696692  0.91398453  0.06543406     1.08750
C1130       C  0.98034955  0.59338994  0.93549301     1.08840
C1131       C  0.92397032  0.94532733  0.94712047     1.08780
C1132       C  0.92140499  0.56246677  0.05050763     1.08760
C1133       C  0.68712973  0.90666867  0.11908728    -0.06850
C1134       C  0.67605108  0.94789502  0.12934270    -0.17980
C1135       C  0.64401618  0.97068108  0.10587369     0.10350
C1136       C  0.62235064  0.95203537  0.07115957    -0.06780
C1137       C  0.63668365  0.91243596  0.05863867    -0.18010
C1138       C  0.66817502  0.88959725  0.08226830     0.10380
S1139       S  0.63087938  0.02255350  0.12303700    -0.32980
S1140       S  0.67903633  0.83668350  0.06658984    -0.32980
H1141       H  0.72070303  0.83356705  0.08632698     0.28390
H1142       H  0.61300772  0.03706321  0.08433868     0.28380
H1143       H  0.68966781  0.96118407  0.15784379     0.18970
H1144       H  0.62045499  0.89746853  0.03228541     0.18980
C1145       C  0.57630809  0.69658614  0.15224590    -0.06850
C1146       C  0.56337808  0.65842504  0.17170523    -0.17980
C1147       C  0.54461602  0.62625665  0.14824668     0.10350
C1148       C  0.53795131  0.63276351  0.10444114    -0.06780
C1149       C  0.54348885  0.67366805  0.08722486    -0.18010
C1150       C  0.56246996  0.70556167  0.11073236     0.10380
S1151       S  0.53523569  0.57678167  0.17505487    -0.32980
S1152       S  0.57402347  0.75495286  0.08443733    -0.32980
H1153       H  0.57419338  0.77846083  0.12143651     0.28390
H1154       H  0.49134312  0.57372940  0.16051009     0.28380
H1155       H  0.57302513  0.65175033  0.20423691     0.18970
H1156       H  0.53584135  0.68032123  0.05424855     0.18980
C1157       C  0.81278986  0.62253905  0.11282184    -0.06850
C1158       C  0.83960240  0.64618290  0.08496511    -0.17980
C1159       C  0.87328461  0.62772239  0.06152776     0.10350
C1160       C  0.87951892  0.58384131  0.06377699    -0.06780
C1161       C  0.84801312  0.55984442  0.08682234    -0.18010
C1162       C  0.81533092  0.57859439  0.11143204     0.10380
S1163       S  0.91060579  0.66267525  0.03454927    -0.32980
S1164       S  0.78199387  0.54509713  0.14480735    -0.32980
H1165       H  0.74460891  0.57100599  0.14244450     0.28390
H1166       H  0.94595081  0.65262700  0.06200980     0.28380
H1167       H  0.83805399  0.68003876  0.08560938     0.18970
H1168       H  0.85088286  0.52606735  0.08857058     0.18980
C1169       C  0.91750561  0.81158526  0.13016986    -0.06850
C1170       C  0.94352988  0.83985895  0.15288072    -0.17980
C1171       C  0.96547843  0.87259114  0.13217524     0.10350
C1172       C  0.96229514  0.87625015  0.08791124    -0.06780
C1173       C  0.94137385  0.84480159  0.06486968    -0.18010
C1174       C  0.91861643  0.81246385  0.08573862     0.10380
S1175       S  0.99368589  0.91067439  0.16387400    -0.32980
S1176       S  0.88726682  0.77635608  0.05443057    -0.32980
H1177       H  0.88453655  0.74501816  0.08621737     0.28390
H1178       H  0.02707120  0.91919948  0.13433245     0.28380
H1179       H  0.94254769  0.83931836  0.18713807     0.18970
H1180       H  0.93991796  0.84721110  0.03066276     0.18980
C1181       C  0.54206319  0.87624224  0.90013762    -0.06850
C1182       C  0.54863139  0.83556729  0.91764753    -0.17980
C1183       C  0.56637868  0.80351882  0.89400488     0.10350
C1184       C  0.57729918  0.81180805  0.85176204    -0.06780
C1185       C  0.56347897  0.84971953  0.83233407    -0.17950
C1186       C  0.54724989  0.88249577  0.85620794     0.10380
S1187       S  0.58007250  0.75484347  0.92080242    -0.32980
S1188       S  0.53931715  0.93232627  0.82956746    -0.32980
H1189       H  0.56801445  0.95361393  0.85693910     0.28390
H1190       H  0.57699561  0.73040115  0.88452943     0.28380
H1191       H  0.54254779  0.82911823  0.95085010     0.18970
H1192       H  0.57133148  0.85598423  0.79942559     0.18980
C1193       C  0.62415367  0.55382960  0.93505876    -0.06850
C1194       C  0.63513345  0.53789960  0.89537742    -0.17980
C1195       C  0.66562156  0.55824977  0.86876467     0.10350
C1196       C  0.68597579  0.59575344  0.88152896    -0.06780
C1197       C  0.67846524  0.60951233  0.92260909    -0.18010
C1198       C  0.64862867  0.58869470  0.94970968     0.10380
S1199       S  0.67278916  0.53789865  0.81664943    -0.32980
S1200       S  0.63958870  0.61154547  0.00030899    -0.32980
H1201       H  0.64478767  0.57313661  0.02234194     0.28390
H1202       H  0.71617655  0.55275974  0.81166615     0.28380
H1203       H  0.61741413  0.51103330  0.88356298     0.18970
H1204       H  0.69338795  0.63859769  0.93254311     0.18980
C1205       C  0.96827952  0.62921582  0.90852017    -0.06850
C1206       C  0.95552144  0.66644503  0.92749786    -0.17980
C1207       C  0.93054627  0.69616362  0.90481697     0.10350
C1208       C  0.91999765  0.68868531  0.86227852    -0.06780
C1209       C  0.93955733  0.65508060  0.84180272    -0.18010
C1210       C  0.96308169  0.62486183  0.86466323     0.10380
S1211       S  0.90833097  0.73964668  0.93294668    -0.32980
S1212       S  0.98257011  0.57992750  0.83693960    -0.32980
H1213       H  0.01951680  0.57316321  0.86333198     0.28390
H1214       H  0.90105950  0.76556097  0.89710926     0.28380
H1215       H  0.96161904  0.67059065  0.96084797     0.18970
H1216       H  0.93226905  0.64985336  0.80872260     0.18980
C1217       C  0.81641470  0.88261253  0.88167230    -0.06850
C1218       C  0.83516992  0.91928927  0.86514815    -0.17980
C1219       C  0.87054772  0.93885680  0.88534515     0.10350
C1220       C  0.88571066  0.92418234  0.92593079    -0.06780
C1221       C  0.86476620  0.88888155  0.94400688    -0.18010
C1222       C  0.83077800  0.86780592  0.92208363     0.10380
S1223       S  0.89890091  0.97802770  0.85350786    -0.32980
S1224       S  0.80854616  0.82067694  0.94602468    -0.32980
H1225       H  0.76929675  0.82037408  0.92195944     0.28390
H1226       H  0.94097422  0.96068322  0.86102040     0.28380
H1227       H  0.82624763  0.92956280  0.83330389     0.18970
H1228       H  0.87575138  0.87688372  0.97459972     0.18980
C1229       C  0.74839328  0.96509932  0.45428312    -0.06850
C1230       C  0.78413503  0.95609661  0.42873127    -0.17980
C1231       C  0.77934487  0.93106668  0.39358971     0.10350
C1232       C  0.73873556  0.90954957  0.38589420    -0.06780
C1233       C  0.70371113  0.91596724  0.41361722    -0.18010
C1234       C  0.70735113  0.94488499  0.44630740     0.10380
S1235       S  0.82524332  0.93364793  0.35781527    -0.32980
S1236       S  0.65697096  0.95767432  0.47267291    -0.32980
H1237       H  0.66744580  0.99963581  0.48014736     0.28390
H1238       H  0.79902335  0.94834468  0.32369948     0.28380
H1239       H  0.81498550  0.97274277  0.43346330     0.18970
H1240       H  0.67232961  0.90063987  0.40807229     0.18980
C1241       C  0.75841630  0.54366568  0.45410568    -0.06850
C1242       C  0.73211277  0.54623360  0.41745434    -0.17980
C1243       C  0.74421168  0.57058319  0.38254124     0.10350
C1244       C  0.77881140  0.60038169  0.38571943    -0.06780
C1245       C  0.80344908  0.60107296  0.42339925    -0.18010
C1246       C  0.79485426  0.57193379  0.45685965     0.10380
S1247       S  0.71716659  0.55759169  0.33338532    -0.32980
S1248       S  0.83331855  0.56975883  0.50020098    -0.32980
H1249       H  0.84651247  0.61183655  0.49675472     0.28390
H1250       H  0.75535185  0.56308571  0.30879417     0.28380
H1251       H  0.70456294  0.52497880  0.41368611     0.18970
H1252       H  0.83017740  0.62344539  0.42611205     0.18980
C1253       C  0.77295108  0.89364248  0.60636573    -0.06850
C1254       C  0.73106902  0.91277859  0.60275980    -0.17980
C1255       C  0.72236476  0.94536211  0.57403750     0.10350
C1256       C  0.75523374  0.95809275  0.54535217    -0.06780
C1257       C  0.79451299  0.93457914  0.54384002    -0.18010
C1258       C  0.80475864  0.90427009  0.57545606     0.10380
S1259       S  0.66978008  0.97175798  0.57669286    -0.32980
S1260       S  0.86009322  0.88453688  0.57708002    -0.32980
H1261       H  0.86791896  0.89924270  0.61803704     0.28390
H1262       H  0.64826573  0.94245268  0.60326289     0.28380
H1263       H  0.70518462  0.90440130  0.62461978     0.18970
H1264       H  0.81970742  0.94363658  0.52131413     0.18980
C1265       C  0.74811431  0.53693422  0.55185464    -0.06850
C1266       C  0.70976387  0.56187811  0.54856478    -0.17980
C1267       C  0.69684779  0.58817321  0.58168954     0.10350
C1268       C  0.72452129  0.59232497  0.61738735    -0.06780
C1269       C  0.76324467  0.56814760  0.61957738    -0.18010
C1270       C  0.77518304  0.54091674  0.58824436     0.10380
S1271       S  0.64377070  0.61288581  0.57961898    -0.32980
S1272       S  0.82553422  0.51215822  0.59873324    -0.32980
H1273       H  0.83682824  0.50571835  0.55671899     0.28390
H1274       H  0.62885799  0.59455720  0.54209128     0.28380
H1275       H  0.68803110  0.55804175  0.52165272     0.18970
H1276       H  0.78507926  0.56969925  0.64677061     0.18980
C1277       C  0.95802124  0.75176107  0.45661881    -0.06850
C1278       C  0.96250667  0.79225123  0.43834632    -0.17980
C1279       C  0.93319492  0.80713543  0.40715427     0.10350
C1280       C  0.89744270  0.78179717  0.39522975    -0.06780
C1281       C  0.88906677  0.74452382  0.41829259    -0.18010
C1282       C  0.91905496  0.72873223  0.44830420     0.10380
S1283       S  0.94594264  0.85615395  0.38074473    -0.32980
S1284       S  0.90535507  0.67845711  0.47196416    -0.32980
H1285       H  0.94588033  0.66930958  0.49115415     0.28390
H1286       H  0.94148221  0.84062646  0.33973037     0.28380
H1287       H  0.99127836  0.81100006  0.44574296     0.18970
H1288       H  0.86078907  0.72542086  0.40993764     0.18980
C1289       C  0.53689295  0.73020336  0.45056856    -0.06850
C1290       C  0.56972042  0.76128826  0.44989769    -0.17980
C1291       C  0.60598736  0.75848390  0.42316594     0.10350
C1292       C  0.60860026  0.72508563  0.39467565    -0.06780
C1293       C  0.57628964  0.69390014  0.39550394    -0.18010
C1294       C  0.54057572  0.69614975  0.42284458     0.10380
S1295       S  0.64790123  0.79849244  0.42706677    -0.32980
S1296       S  0.50022053  0.65508309  0.41956750    -0.32980
H1297       H  0.50745021  0.64119281  0.46143001     0.28390
H1298       H  0.68286960  0.77333725  0.41362845     0.28380
H1299       H  0.56723249  0.78781969  0.47041779     0.18970
H1300       H  0.57760624  0.66870617  0.37319305     0.18980
C1301       C  0.96263370  0.72349149  0.54934827    -0.06850
C1302       C  0.92606182  0.75032176  0.54911897    -0.17980
C1303       C  0.89045778  0.74264862  0.57595298     0.10350
C1304       C  0.89258000  0.70952674  0.60617732    -0.06780
C1305       C  0.92789013  0.68170714  0.60555061    -0.18010
C1306       C  0.96285249  0.68816390  0.57740759     0.10380
S1307       S  0.84301701  0.77626727  0.57041519    -0.32980
S1308       S  0.50816039  0.65172437  0.57917999    -0.32980
H1309       H  0.48933549  0.62234166  0.60752164     0.28390
H1310       H  0.81265246  0.74766239  0.58823001     0.28380
H1311       H  0.92527275  0.77770014  0.52837042     0.18970
H1312       H  0.92955664  0.65668695  0.62915887     0.18980
C1313       C  0.60480018  0.77701840  0.60351106    -0.06850
C1314       C  0.61385610  0.74381586  0.57665582    -0.17980
C1315       C  0.58265993  0.72970344  0.54738469     0.10350
C1316       C  0.54106938  0.74978488  0.54437968    -0.06780
C1317       C  0.53455736  0.78636323  0.56763405    -0.18010
C1318       C  0.56555653  0.79979968  0.59748071     0.10380
S1319       S  0.59861946  0.68523594  0.51709751    -0.32980
S1320       S  0.55123515  0.84355743  0.62947981    -0.32980
H1321       H  0.56366750  0.82441051  0.66816644     0.28390
H1322       H  0.55626674  0.67022805  0.50863515     0.28380
H1323       H  0.64428482  0.72641756  0.58099353     0.18970
H1324       H  0.50356712  0.80302242  0.56464961     0.18980
loop_ 
_geom_bond_atom_site_label_1 
_geom_bond_atom_site_label_2 
_geom_bond_distance 
_geom_bond_site_symmetry_2 
_ccdc_geom_bond_type 
C1          C308   1.498       .  S
C1          C985   1.498       .  S
C1          C664   1.369       .  D
C2          C296   1.492   1_655  S
C2          C946   1.490       .  S
C2          C663   1.369   1_655  D
C3          C263   1.502       .  S
C3          C603   1.502       .  S
C3          C335   1.368       .  D
C4          C248   1.519       .  S
C4          C567   1.500   1_545  S
C4          C334   1.368       .  D
C5           N23   1.338       .  A
C5           C42   1.472       .  S
C5          C320   1.471       .  S
N6           N23   1.315       .  A
N6           N28   1.322       .  A
N6          Co43   2.040       .  S
C7           N32   1.331       .  A
C7           C45   1.443       .  S
C7           H52   1.081       .  S
H8           C49   1.079       .  S
C9           N33   1.352       .  A
C9           C13   1.470       .  S
C9           H38   1.081       .  S
Co10         N28   2.135       .  S
Co10         N18   2.027       .  S
Co10         N50   2.028       .  S
Co10         N26   2.139       .  S
Co10        Cl54   2.428       .  S
N11          C49   1.359       .  A
N11          N18   1.311       .  A
N11         Co12   2.121       .  S
Co12         N15   2.033       .  S
Co12         N32   2.050       .  S
Co12         N19   2.087       .  S
Co12        Cl54   2.455       .  S
C13          N51   1.338       .  A
C13         C311   1.468       .  S
N14          N21   1.314       .  A
N14          N44   1.308       .  A
N14         Co47   2.023       .  S
N15          N33   1.321       .  A
N15          N51   1.316       .  A
N16          C45   1.366       .  A
N16          N26   1.336       .  A
H17          C42   1.080       .  S
N18          N39   1.309       .  A
N19          N37   1.316       .  A
N19          N24   1.326       .  A
C20          N24   1.350       .  A
C20          C48   1.452       .  S
C20         C215   1.458       .  S
N21          C36   1.361       .  A
N21         Co43   2.132       .  S
C22          N50   1.323       .  A
C22          C25   1.443       .  S
C22          H56   1.082       .  S
C25          N46   1.357       .  A
C25         C191   1.467       .  S
N26          N32   1.318       .  A
N27          C53   1.334       .  A
N27          N29   1.321       .  A
N27         Co43   2.065       .  S
N28          C42   1.353       .  A
N29          N57   1.334       .  A
N29         Co47   2.129       .  S
H30          C53   1.081       .  S
H31          C48   1.082       .  S
N33         Co47   2.132       .  S
N34          N46   1.330       .  A
N34          N50   1.318       .  A
N34         Co43   2.109       .  S
C35          N39   1.338       .  A
C35          C49   1.489       .  S
C35         C260   1.500       .  S
C36          C55   1.492       .  S
C36          H40   1.080       .  S
N37          C48   1.327       .  A
N37         Co47   2.042       .  S
C41          N57   1.361       .  A
C41          C53   1.448       .  S
C41         C203   1.482       .  S
Co43        Cl54   2.458       .  S
N44          C55   1.336       .  A
C45         C224   1.482       .  S
Co47        Cl54   2.429       .  S
C55         C275   1.499       .  S
C58          N76   1.337       .  A
C58          C95   1.471       .  S
C58         C299   1.468       .  S
N59          N76   1.316       .  A
N59          N81   1.320       .  A
N59         Co96   2.028       .  S
C60          N85   1.327       .  A
C60          C98   1.439       .  S
C60         H105   1.081       .  S
H61         C102   1.081       .  S
C62          N86   1.354       .  A
C62          C66   1.471       .  S
C62          H91   1.074       .  S
Co63         N81   2.132       .  S
Co63         N71   2.024       .  S
Co63        N103   2.023       .  S
Co63         N79   2.153       .  S
Co63       Cl107   2.418       .  S
N64         C102   1.364       .  A
N64          N71   1.314       .  A
N64         Co65   2.136       .  S
Co65         N68   2.018       .  S
Co65         N85   2.033       .  S
Co65         N72   2.099       .  S
Co65       Cl107   2.466       .  S
C66         N104   1.335       .  A
C66         C287   1.470       .  S
N67          N74   1.315       .  A
N67          N97   1.311       .  A
N67        Co100   2.023       .  S
N68          N86   1.320       .  A
N68         N104   1.312       .  A
N69          C98   1.369       .  A
N69          N79   1.340       .  A
H70          C95   1.081       .  S
N71          N92   1.309       .  A
N72          N90   1.318       .  A
N72          N77   1.327       .  A
C73          N77   1.353       .  A
C73         C101   1.449       .  S
C73         C176   1.458       .  S
N74          C89   1.358       .  A
N74         Co96   2.135       .  S
C75         N103   1.322       .  A
C75          C78   1.443       .  S
C75         H109   1.082       .  S
C78          N99   1.358       .  A
C78         C152   1.467       .  S
N79          N85   1.317       .  A
N80         C106   1.331       .  A
N80          N82   1.320       .  A
N80         Co96   2.049       .  S
N81          C95   1.350       .  A
N82         N110   1.337       .  A
N82        Co100   2.150       .  S
H83         C106   1.081       .  S
H84         C101   1.082       .  S
N86        Co100   2.140       .  S
N87          N99   1.330       .  A
N87         N103   1.318       .  A
N87         Co96   2.115       .  S
C88          N92   1.332       .  A
C88         C102   1.489       .  S
C88         C251   1.492       .  S
C89         C108   1.487       .  S
C89          H93   1.081       .  S
N90         C101   1.327       .  A
N90        Co100   2.044       .  S
C94         N110   1.366       .  A
C94         C106   1.443       .  S
C94         C140   1.487       .  S
Co96       Cl107   2.460       .  S
N97         C108   1.332       .  A
C98         C164   1.493       .  S
Co100      Cl107   2.428       .  S
C108        C239   1.494       .  S
O111        C119   1.253       .  A
O111       Co131   1.843       .  S
O112        C120   1.254       .  A
O112       Co132   1.846       .  S
O113        C121   1.278       .  A
O113       Co464   2.018   1_455  S
O114        C122   1.280       .  A
O114       Co465   2.032   1_455  S
O115        C121   1.274       .  A
O115       Co132   1.983   1_556  S
O116        C122   1.272       .  A
O116       Co131   1.977   1_554  S
O117        C120   1.300       .  A
O117       Co134   2.118   1_455  S
O118        C119   1.302       .  A
O118       Co133   2.129   1_455  S
C119        C188   1.483       .  S
C120        C155   1.484       .  S
C121        C200   1.500       .  S
C122        C143   1.495       .  S
O123        C136   1.244       .  A
O123       Co793   1.961   1_554  S
O124        C137   1.243       .  A
O124       Co794   1.970   1_556  S
O125        C138   1.248       .  A
O125       Co795   1.919       .  S
O126        C139   1.257       .  A
O126       Co796   1.941       .  S
O127        C139   1.283       .  A
O127       Co794   2.076       .  S
O128        C138   1.284       .  A
O128       Co793   2.096       .  S
O129        C136   1.254       .  A
O129      Co1127   1.982       .  S
O130        C137   1.251       .  A
O130      Co1126   1.972       .  S
Co131       O785   1.961   1_556  S
Co131       O790   2.096   1_455  S
Co131       O466   1.937   1_456  S
Co132       O786   1.970   1_554  S
Co132       O789   2.076   1_455  S
Co132       O135   1.938   1_455  S
Co133       O444   2.018   1_655  S
Co133       O787   1.919       .  S
Co133      O1123   1.972       .  S
Co133       O466   2.098   1_556  S
Co134       O445   2.032   1_645  S
Co134       O788   1.941       .  S
Co134      O1122   1.982   1_545  S
Co134       O135   2.113       .  S
O135       Co462   1.937   1_644  S
O135       Co464   2.098   1_554  S
C136        C179   1.456       .  S
C137        C212   1.458       .  S
C138        C227   1.500       .  S
C139        C167   1.511       .  S
C140        C141   1.406       .  A
C140        C145   1.415       .  A
C141        H150   1.084       .  S
C141        C142   1.411       .  A
C142        C143   1.417       .  A
C142        S146   1.803       .  S
C143        C144   1.406       .  A
C144        H151   1.084       .  S
C144        C145   1.404       .  A
C145        S147   1.805       .  S
S146        H149   1.405       .  S
S147        H148   1.407       .  S
C152        C153   1.409       .  A
C152        C157   1.400       .  A
C153        H162   1.085       .  S
C153        C154   1.398       .  A
C154        C155   1.411       .  A
C154        S158   1.800       .  S
C155        C156   1.414       .  A
C156        H163   1.084       .  S
C156        C157   1.395       .  A
C157        S159   1.802       .  S
S158        H161   1.407   1_455  S
S159        H160   1.406       .  S
C164        C165   1.409       .  A
C164        C169   1.408       .  A
C165        H174   1.083       .  S
C165        C166   1.406       .  A
C166        C167   1.415       .  A
C166        S170   1.794       .  S
C167        C168   1.419       .  A
C168        H175   1.083       .  S
C168        C169   1.409       .  A
C169        S171   1.800       .  S
S170        H173   1.407       .  S
S171        H172   1.406       .  S
C176        C177   1.403       .  A
C176        C181   1.407       .  A
C177        H186   1.085       .  S
C177        C178   1.392       .  A
C178        C179   1.406       .  A
C178        S182   1.803       .  S
C179        C180   1.401       .  A
C180        H187   1.085       .  S
C180        C181   1.397       .  A
C181        S183   1.801       .  S
S182        H185   1.405       .  S
S183        H184   1.406       .  S
C188        C189   1.415       .  A
C188        C193   1.411       .  A
C189        H198   1.084       .  S
C189        C190   1.394       .  A
C190        C191   1.400       .  A
C190        S194   1.802       .  S
C191        C192   1.409       .  A
C192        H199   1.085       .  S
C192        C193   1.399       .  A
C193        S195   1.800       .  S
S194        H197   1.406       .  S
S195        H196   1.407       .  S
C200        C201   1.409       .  A
C200        C205   1.420       .  A
C201        H210   1.083       .  S
C201        C202   1.404       .  A
C202        C203   1.411       .  A
C202        S206   1.802       .  S
C203        C204   1.403       .  A
C204        H211   1.084       .  S
C204        C205   1.407       .  A
C205        S207   1.799   1_556  S
S206        H209   1.405       .  S
S207        H208   1.406       .  S
C212        C213   1.402       .  A
C212        C217   1.406       .  A
C213        H222   1.081       .  S
C213        C214   1.398       .  A
C214        C215   1.407       .  A
C214        S218   1.803       .  S
C215        C216   1.403       .  A
C216        H223   1.085       .  S
C216        C217   1.388       .  A
C217        S219   1.803       .  S
S218        H221   1.406       .  S
S219        H220   1.405       .  S
C224        C225   1.394       .  A
C224        C229   1.419       .  A
C225        H234   1.085       .  S
C225        C226   1.396       .  A
C226        C227   1.430       .  A
C226        S230   1.808       .  S
C227        C228   1.405       .  A
C228        H235   1.084       .  S
C228        C229   1.414       .  A
C229        S231   1.801       .  S
S230        H233   1.408       .  S
S231        H232   1.407       .  S
C236        C335   1.500       .  S
C236        C237   1.392       .  A
C236        C241   1.422       .  A
C237        H246   1.085       .  S
C237        C238   1.391       .  A
C238        C239   1.429       .  A
C238        S242   1.802       .  S
C239        C240   1.402       .  A
C240        H247   1.083       .  S
C240        C241   1.406       .  A
C241        S243   1.799       .  S
S242        H245   1.408       .  S
S243        H244   1.401       .  S
C248        C249   1.403       .  A
C248        C253   1.427       .  A
C249        H258   1.082       .  S
C249        C250   1.388       .  A
C250        C251   1.418       .  A
C250        S254   1.808       .  S
C251        C252   1.402       .  A
C252        H259   1.082       .  S
C252        C253   1.419       .  A
C253        S255   1.793       .  S
S254        H257   1.408       .  S
S255        H256   1.403       .  S
C260        C261   1.413       .  A
C260        C265   1.415       .  A
C261        H270   1.080       .  S
C261        C262   1.391       .  A
C262        C263   1.407       .  A
C262        S266   1.809       .  S
C263        C264   1.411       .  A
C264        H271   1.083       .  S
C264        C265   1.410       .  A
C265        S267   1.793       .  S
S266        H269   1.407       .  S
S267        H268   1.407       .  S
C272        C334   1.502       .  S
C272        C273   1.413       .  A
C272        C277   1.416       .  A
C273        H282   1.081       .  S
C273        C274   1.417       .  A
C274        C275   1.410       .  A
C274        S278   1.794       .  S
C275        C276   1.407       .  A
C276        H283   1.083       .  S
C276        C277   1.386       .  A
C277        S279   1.808       .  S
S278        H281   1.407       .  S
S279        H280   1.396       .  S
C284        C664   1.490       .  S
C284        C285   1.411       .  A
C284        C289   1.415       .  A
C285        H294   1.083       .  S
C285        C286   1.399       .  A
C286        C287   1.404       .  A
C286        S290   1.801       .  S
C287        C288   1.406       .  A
C288        H295   1.084       .  S
C288        C289   1.396       .  A
C289        S291   1.805       .  S
S290        H293   1.406       .  S
S291        H292   1.394       .  S
C296        C297   1.403       .  A
C296        C301   1.419       .  A
C297        H306   1.083       .  S
C297        C298   1.397       .  A
C298        C299   1.416       .  A
C298        S302   1.804       .  S
C299        C300   1.394       .  A
C300        H307   1.084       .  S
C300        C301   1.395       .  A
C301        S303   1.794       .  S
S302        H305   1.407       .  S
S303        H304   1.404       .  S
C308        C309   1.403       .  A
C308        C313   1.420       .  A
C309        H318   1.082       .  S
C309        C310   1.397       .  A
C310        C311   1.412       .  A
C310        S314   1.802       .  S
C311        C312   1.394       .  A
C312        H319   1.083       .  S
C312        C313   1.402       .  A
C313        S977   1.803       .  S
S314        H317   1.407       .  S
S315        C975   1.803   1_455  S
S315        H316   1.407   1_455  S
C320        C321   1.404       .  A
C320        C325   1.406       .  A
C321        H330   1.084       .  S
C321        C322   1.399       .  A
C322        C323   1.418       .  A
C322        S326   1.802       .  S
C323        C663   1.498       .  S
C323        C324   1.411       .  A
C324        H331   1.083       .  S
C324        C325   1.400       .  A
C325        S327   1.802       .  S
S326        H329   1.394       .  S
S327        H328   1.406       .  S
C332        C639   1.498       .  S
C332       C1316   1.498       .  S
C332        C995   1.369       .  D
C333       C1277   1.490       .  S
C333        C627   1.492   1_655  S
C333        C994   1.369   1_655  D
C334        C594   1.502   1_545  S
C335        C579   1.519       .  S
C336        N354   1.338       .  A
C336        C373   1.472       .  S
C336        C651   1.471       .  S
N337        N354   1.315       .  A
N337        N359   1.322       .  A
N337       Co374   2.040       .  S
C338        N363   1.331       .  A
C338        C376   1.443       .  S
C338        H383   1.081       .  S
H339        C380   1.079       .  S
C340        N364   1.352       .  A
C340        C344   1.470       .  S
C340        H369   1.081       .  S
Co341       N359   2.135       .  S
Co341       N349   2.027       .  S
Co341       N381   2.028       .  S
Co341       N357   2.139       .  S
Co341      Cl385   2.428       .  S
N342        C380   1.359       .  A
N342        N349   1.311       .  A
N342       Co343   2.121       .  S
Co343       N346   2.033       .  S
Co343       N363   2.050       .  S
Co343       N350   2.087       .  S
Co343      Cl385   2.455       .  S
C344        N382   1.338       .  A
C344        C642   1.468       .  S
N345        N352   1.314       .  A
N345        N375   1.308       .  A
N345       Co378   2.023       .  S
N346        N364   1.321       .  A
N346        N382   1.316       .  A
N347        C376   1.366       .  A
N347        N357   1.336       .  A
H348        C373   1.080       .  S
N349        N370   1.309       .  A
N350        N368   1.316       .  A
N350        N355   1.326       .  A
C351        N355   1.350       .  A
C351        C379   1.452       .  S
C351        C546   1.458       .  S
N352        C367   1.361       .  A
N352       Co374   2.132       .  S
C353        N381   1.323       .  A
C353        C356   1.443       .  S
C353        H387   1.082       .  S
C356        N377   1.357       .  A
C356        C522   1.467       .  S
N357        N363   1.318       .  A
N358        C384   1.334       .  A
N358        N360   1.321       .  A
N358       Co374   2.065       .  S
N359        C373   1.353       .  A
N360        N388   1.334       .  A
N360       Co378   2.129       .  S
H361        C384   1.081       .  S
H362        C379   1.082       .  S
N364       Co378   2.132       .  S
N365        N377   1.330       .  A
N365        N381   1.318       .  A
N365       Co374   2.109       .  S
C366        N370   1.338       .  A
C366        C380   1.489       .  S
C366        C591   1.500       .  S
C367        C386   1.492       .  S
C367        H371   1.080       .  S
N368        C379   1.327       .  A
N368       Co378   2.042       .  S
C372        N388   1.361       .  A
C372        C384   1.448       .  S
C372        C534   1.482       .  S
Co374      Cl385   2.458       .  S
N375        C386   1.336       .  A
C376        C555   1.482       .  S
Co378      Cl385   2.429       .  S
C386        C606   1.499       .  S
C389        N407   1.337       .  A
C389        C426   1.471       .  S
C389        C630   1.468       .  S
N390        N407   1.316       .  A
N390        N412   1.320       .  A
N390       Co427   2.028       .  S
C391        N416   1.327       .  A
C391        C429   1.439       .  S
C391        H436   1.081       .  S
H392        C433   1.081       .  S
C393        N417   1.354       .  A
C393        C397   1.471       .  S
C393        H422   1.074       .  S
Co394       N412   2.132       .  S
Co394       N402   2.024       .  S
Co394       N434   2.023       .  S
Co394       N410   2.153       .  S
Co394      Cl438   2.418       .  S
N395        C433   1.364       .  A
N395        N402   1.314       .  A
N395       Co396   2.136       .  S
Co396       N399   2.018       .  S
Co396       N416   2.033       .  S
Co396       N403   2.099       .  S
Co396      Cl438   2.466       .  S
C397        N435   1.335       .  A
C397        C618   1.470       .  S
N398        N405   1.315       .  A
N398        N428   1.311       .  A
N398       Co431   2.023       .  S
N399        N417   1.320       .  A
N399        N435   1.312       .  A
N400        C429   1.369       .  A
N400        N410   1.340       .  A
H401        C426   1.081       .  S
N402        N423   1.309       .  A
N403        N421   1.318       .  A
N403        N408   1.327       .  A
C404        N408   1.353       .  A
C404        C432   1.449       .  S
C404        C507   1.458       .  S
N405        C420   1.358       .  A
N405       Co427   2.135       .  S
C406        N434   1.322       .  A
C406        C409   1.443       .  S
C406        H440   1.082       .  S
C409        N430   1.358       .  A
C409        C483   1.467       .  S
N410        N416   1.317       .  A
N411        C437   1.331       .  A
N411        N413   1.320       .  A
N411       Co427   2.049       .  S
N412        C426   1.350       .  A
N413        N441   1.337       .  A
N413       Co431   2.150       .  S
H414        C437   1.081       .  S
H415        C432   1.082       .  S
N417       Co431   2.140       .  S
N418        N430   1.330       .  A
N418        N434   1.318       .  A
N418       Co427   2.115       .  S
C419        N423   1.332       .  A
C419        C433   1.489       .  S
C419        C582   1.492       .  S
C420        C439   1.487       .  S
C420        H424   1.081       .  S
N421        C432   1.327       .  A
N421       Co431   2.044       .  S
C425        N441   1.366       .  A
C425        C437   1.443       .  S
C425        C471   1.487       .  S
Co427      Cl438   2.460       .  S
N428        C439   1.332       .  A
C429        C495   1.493       .  S
Co431      Cl438   2.428       .  S
C439        C570   1.494       .  S
O442        C450   1.253       .  A
O442       Co462   1.843       .  S
O443        C451   1.254       .  A
O443       Co463   1.846       .  S
O444        C452   1.278       .  A
O445        C453   1.280       .  A
O446        C452   1.274       .  A
O446       Co463   1.983   1_556  S
O447        C453   1.272       .  A
O447       Co462   1.977   1_554  S
O448        C451   1.300       .  A
O448       Co465   2.118   1_455  S
O449        C450   1.302       .  A
O449       Co464   2.129   1_465  S
C450        C519   1.483       .  S
C451        C486   1.484       .  S
C452        C531   1.500       .  S
C453        C474   1.495       .  S
O454        C467   1.244       .  A
O454      Co1124   1.961   1_554  S
O455        C468   1.243       .  A
O455      Co1125   1.970   1_556  S
O456        C469   1.248       .  A
O456      Co1126   1.919   1_565  S
O457        C470   1.257       .  A
O457      Co1127   1.941       .  S
O458        C470   1.283       .  A
O458      Co1125   2.076       .  S
O459        C469   1.284       .  A
O459      Co1124   2.096       .  S
O460        C467   1.254       .  A
O460       Co796   1.982   1_565  S
O461        C468   1.251       .  A
O461       Co795   1.972       .  S
Co462      O1116   1.961   1_556  S
Co462      O1121   2.096   1_455  S
Co463      O1117   1.970   1_554  S
Co463      O1120   2.076   1_455  S
Co463       O466   1.938   1_455  S
Co464      O1118   1.919   1_545  S
Co464       O792   1.972       .  S
Co465      O1119   1.941       .  S
Co465       O791   1.982       .  S
Co465       O466   2.113       .  S
C467        C510   1.456       .  S
C468        C543   1.458       .  S
C469        C558   1.500       .  S
C470        C498   1.511       .  S
C471        C472   1.406       .  A
C471        C476   1.415       .  A
C472        H481   1.084       .  S
C472        C473   1.411       .  A
C473        C474   1.417       .  A
C473        S477   1.803   1_565  S
C474        C475   1.406       .  A
C475        H482   1.084       .  S
C475        C476   1.404       .  A
C476        S478   1.805       .  S
S477        H480   1.405       .  S
S478        H479   1.407       .  S
C483        C484   1.409       .  A
C483        C488   1.400       .  A
C484        H493   1.085       .  S
C484        C485   1.398       .  A
C485        C486   1.411       .  A
C485        S489   1.800       .  S
C486        C487   1.414       .  A
C487        H494   1.084       .  S
C487        C488   1.395       .  A
C488        S490   1.802       .  S
S489        H492   1.407   1_455  S
S490        H491   1.406       .  S
C495        C496   1.409       .  A
C495        C500   1.408       .  A
C496        H505   1.083       .  S
C496        C497   1.406       .  A
C497        C498   1.415       .  A
C497        S501   1.794       .  S
C498        C499   1.419       .  A
C499        H506   1.083       .  S
C499        C500   1.409       .  A
C500        S502   1.800       .  S
S501        H504   1.407       .  S
S502        H503   1.406       .  S
C507        C508   1.403       .  A
C507        C512   1.407       .  A
C508        H517   1.085       .  S
C508        C509   1.392       .  A
C509        C510   1.406       .  A
C509        S513   1.803       .  S
C510        C511   1.401       .  A
C511        H518   1.085       .  S
C511        C512   1.397       .  A
C512        S514   1.801       .  S
S513        H516   1.405       .  S
S514        H515   1.406       .  S
C519        C520   1.415       .  A
C519        C524   1.411       .  A
C520        H529   1.084       .  S
C520        C521   1.394       .  A
C521        C522   1.400       .  A
C521        S525   1.802       .  S
C522        C523   1.409       .  A
C523        H530   1.085       .  S
C523        C524   1.399       .  A
C524        S526   1.800       .  S
S525        H528   1.406       .  S
S526        H527   1.407       .  S
C531        C532   1.409       .  A
C531        C536   1.420       .  A
C532        H541   1.083       .  S
C532        C533   1.404       .  A
C533        C534   1.411       .  A
C533        S537   1.802       .  S
C534        C535   1.403       .  A
C535        H542   1.084       .  S
C535        C536   1.407       .  A
C536        S538   1.799   1_556  S
S537        H540   1.405       .  S
S538        H539   1.406       .  S
C543        C544   1.402       .  A
C543        C548   1.406       .  A
C544        H553   1.081       .  S
C544        C545   1.398       .  A
C545        C546   1.407       .  A
C545        S549   1.803       .  S
C546        C547   1.403       .  A
C547        H554   1.085       .  S
C547        C548   1.388       .  A
C548        S550   1.803       .  S
S549        H552   1.406       .  S
S550        H551   1.405       .  S
C555        C556   1.394       .  A
C555        C560   1.419       .  A
C556        H565   1.085       .  S
C556        C557   1.396       .  A
C557        C558   1.430       .  A
C557        S561   1.808       .  S
C558        C559   1.405       .  A
C559        H566   1.084       .  S
C559        C560   1.414       .  A
C560        S562   1.801       .  S
S561        H564   1.408       .  S
S562        H563   1.407       .  S
C567        C568   1.392       .  A
C567        C572   1.422       .  A
C568        H577   1.085       .  S
C568        C569   1.391       .  A
C569        C570   1.429       .  A
C569        S573   1.802       .  S
C570        C571   1.402       .  A
C571        H578   1.083       .  S
C571        C572   1.406       .  A
C572        S574   1.799       .  S
S573        H576   1.408       .  S
S574        H575   1.401       .  S
C579        C580   1.403       .  A
C579        C584   1.427       .  A
C580        H589   1.082       .  S
C580        C581   1.388       .  A
C581        C582   1.418       .  A
C581        S585   1.808       .  S
C582        C583   1.402       .  A
C583        H590   1.082       .  S
C583        C584   1.419       .  A
C584        S586   1.793       .  S
S585        H588   1.408       .  S
S586        H587   1.403       .  S
C591        C592   1.413       .  A
C591        C596   1.415       .  A
C592        H601   1.080       .  S
C592        C593   1.391       .  A
C593        C594   1.407       .  A
C593        S597   1.809       .  S
C594        C595   1.411       .  A
C595        H602   1.083       .  S
C595        C596   1.410       .  A
C596        S598   1.793       .  S
S597        H600   1.407       .  S
S598        H599   1.407       .  S
C603        C604   1.413       .  A
C603        C608   1.416       .  A
C604        H613   1.081       .  S
C604        C605   1.417       .  A
C605        C606   1.410       .  A
C605        S609   1.794       .  S
C606        C607   1.407       .  A
C607        H614   1.083       .  S
C607        C608   1.386       .  A
C608        S610   1.808       .  S
S609        H612   1.407       .  S
S610        H611   1.396       .  S
C615        C995   1.490       .  S
C615        C616   1.411       .  A
C615        C620   1.415       .  A
C616        H625   1.083       .  S
C616        C617   1.399       .  A
C617        C618   1.404       .  A
C617        S621   1.801       .  S
C618        C619   1.406       .  A
C619        H626   1.084       .  S
C619        C620   1.396       .  A
C620        S622   1.805       .  S
S621        H624   1.406       .  S
S622        H623   1.394       .  S
C627        C628   1.403       .  A
C627        C632   1.419       .  A
C628        H637   1.083       .  S
C628        C629   1.397       .  A
C629        C630   1.416       .  A
C629        S633   1.804       .  S
C630        C631   1.394       .  A
C631        H638   1.084       .  S
C631        C632   1.395       .  A
C632        S634   1.794       .  S
S633        H636   1.407       .  S
S634        H635   1.404       .  S
C639        C640   1.403       .  A
C639        C644   1.420       .  A
C640        H649   1.082       .  S
C640        C641   1.397       .  A
C641        C642   1.412       .  A
C641        S645   1.802       .  S
C642        C643   1.394       .  A
C643        H650   1.083       .  S
C643        C644   1.402       .  A
C644       S1308   1.803       .  S
S645        H648   1.407       .  S
S646       C1306   1.803   1_455  S
S646        H647   1.407   1_455  S
C651        C652   1.404       .  A
C651        C656   1.406       .  A
C652        H661   1.084       .  S
C652        C653   1.399       .  A
C653        C654   1.418       .  A
C653        S657   1.802       .  S
C654        C994   1.498       .  S
C654        C655   1.411       .  A
C655        H662   1.083       .  S
C655        C656   1.400       .  A
C656        S658   1.802       .  S
S657        H660   1.394       .  S
S658        H659   1.406       .  S
C663        C970   1.498   1_455  S
C664        C958   1.492       .  S
C665        C925   1.502       .  S
C665       C1265   1.502       .  S
C665        C997   1.368       .  D
C666       C1229   1.500   1_545  S
C666        C910   1.519       .  S
C666        C996   1.368       .  D
C667        N685   1.338       .  A
C667        C704   1.472       .  S
C667        C982   1.471       .  S
N668        N685   1.315       .  A
N668        N690   1.322       .  A
N668       Co705   2.040       .  S
C669        N694   1.331       .  A
C669        C707   1.443       .  S
C669        H714   1.081       .  S
H670        C711   1.079       .  S
C671        N695   1.352       .  A
C671        C675   1.470       .  S
C671        H700   1.081       .  S
Co672       N690   2.135       .  S
Co672       N680   2.027       .  S
Co672       N712   2.028       .  S
Co672       N688   2.139       .  S
Co672      Cl716   2.428       .  S
N673        C711   1.359       .  A
N673        N680   1.311       .  A
N673       Co674   2.121       .  S
Co674       N677   2.033       .  S
Co674       N694   2.050       .  S
Co674       N681   2.087       .  S
Co674      Cl716   2.455       .  S
C675        N713   1.338       .  A
C675        C973   1.468       .  S
N676        N683   1.314       .  A
N676        N706   1.308       .  A
N676       Co709   2.023       .  S
N677        N695   1.321       .  A
N677        N713   1.316       .  A
N678        C707   1.366       .  A
N678        N688   1.336       .  A
H679        C704   1.080       .  S
N680        N701   1.309       .  A
N681        N699   1.316       .  A
N681        N686   1.326       .  A
C682        N686   1.350       .  A
C682        C710   1.452       .  S
C682        C877   1.458       .  S
N683        C698   1.361       .  A
N683       Co705   2.132       .  S
C684        N712   1.323       .  A
C684        C687   1.443       .  S
C684        H718   1.082       .  S
C687        N708   1.357       .  A
C687        C853   1.467       .  S
N688        N694   1.318       .  A
N689        C715   1.334       .  A
N689        N691   1.321       .  A
N689       Co705   2.065       .  S
N690        C704   1.353       .  A
N691        N719   1.334       .  A
N691       Co709   2.129       .  S
H692        C715   1.081       .  S
H693        C710   1.082       .  S
N695       Co709   2.132       .  S
N696        N708   1.330       .  A
N696        N712   1.318       .  A
N696       Co705   2.109       .  S
C697        N701   1.338       .  A
C697        C711   1.489       .  S
C697        C922   1.500       .  S
C698        C717   1.492       .  S
C698        H702   1.080       .  S
N699        C710   1.327       .  A
N699       Co709   2.042       .  S
C703        N719   1.361       .  A
C703        C715   1.448       .  S
C703        C865   1.482       .  S
Co705      Cl716   2.458       .  S
N706        C717   1.336       .  A
C707        C886   1.482       .  S
Co709      Cl716   2.429       .  S
C717        C937   1.499       .  S
C720        N738   1.337       .  A
C720        C757   1.471       .  S
C720        C961   1.468       .  S
N721        N738   1.316       .  A
N721        N743   1.320       .  A
N721       Co758   2.028       .  S
C722        N747   1.327       .  A
C722        C760   1.439       .  S
C722        H767   1.081       .  S
H723        C764   1.081       .  S
C724        N748   1.354       .  A
C724        C728   1.471       .  S
C724        H753   1.074       .  S
Co725       N743   2.132       .  S
Co725       N733   2.024       .  S
Co725       N765   2.023       .  S
Co725       N741   2.153       .  S
Co725      Cl769   2.418       .  S
N726        C764   1.364       .  A
N726        N733   1.314       .  A
N726       Co727   2.136       .  S
Co727       N730   2.018       .  S
Co727       N747   2.033       .  S
Co727       N734   2.099       .  S
Co727      Cl769   2.466       .  S
C728        N766   1.335       .  A
C728        C949   1.470       .  S
N729        N736   1.315       .  A
N729        N759   1.311       .  A
N729       Co762   2.023       .  S
N730        N748   1.320       .  A
N730        N766   1.312       .  A
N731        C760   1.369       .  A
N731        N741   1.340       .  A
H732        C757   1.081       .  S
N733        N754   1.309       .  A
N734        N752   1.318       .  A
N734        N739   1.327       .  A
C735        N739   1.353       .  A
C735        C763   1.449       .  S
C735        C838   1.458       .  S
N736        C751   1.358       .  A
N736       Co758   2.135       .  S
C737        N765   1.322       .  A
C737        C740   1.443       .  S
C737        H771   1.082       .  S
C740        N761   1.358       .  A
C740        C814   1.467       .  S
N741        N747   1.317       .  A
N742        C768   1.331       .  A
N742        N744   1.320       .  A
N742       Co758   2.049       .  S
N743        C757   1.350       .  A
N744        N772   1.337       .  A
N744       Co762   2.150       .  S
H745        C768   1.081       .  S
H746        C763   1.082       .  S
N748       Co762   2.140       .  S
N749        N761   1.330       .  A
N749        N765   1.318       .  A
N749       Co758   2.115       .  S
C750        N754   1.332       .  A
C750        C764   1.489       .  S
C750        C913   1.492       .  S
C751        C770   1.487       .  S
C751        H755   1.081       .  S
N752        C763   1.327       .  A
N752       Co762   2.044       .  S
C756        N772   1.366       .  A
C756        C768   1.443       .  S
C756        C802   1.487       .  S
Co758      Cl769   2.460       .  S
N759        C770   1.332       .  A
C760        C826   1.493       .  S
Co762      Cl769   2.428       .  S
C770        C901   1.494       .  S
O773        C781   1.253       .  A
O773       Co793   1.843       .  S
O774        C782   1.254       .  A
O774       Co794   1.846       .  S
O775        C783   1.278       .  A
O775      Co1126   2.018       .  S
O776        C784   1.280       .  A
O776      Co1127   2.032       .  S
O777        C783   1.274       .  A
O777       Co794   1.983   1_556  S
O778        C784   1.272       .  A
O778       Co793   1.977   1_554  S
O779        C782   1.300       .  A
O779       Co796   2.118       .  S
O780        C781   1.302       .  A
O780       Co795   2.129       .  S
C781        C850   1.483       .  S
C782        C817   1.484       .  S
C783        C862   1.500       .  S
C784        C805   1.495       .  S
O785        C798   1.244   1_455  A
O786        C799   1.243   1_455  A
O787        C800   1.248       .  A
O788        C801   1.257       .  A
O789        C801   1.283       .  A
O790        C800   1.284       .  A
O791        C798   1.254       .  A
O792        C799   1.251       .  A
Co793      O1128   1.937   1_556  S
Co794       O797   1.938       .  S
Co795      O1106   2.018       .  S
Co795      O1128   2.098   1_556  S
Co796      O1107   2.032   1_545  S
Co796       O797   2.113       .  S
O797      Co1124   1.937   1_544  S
O797      Co1126   2.098   1_554  S
C798        C841   1.456       .  S
C799        C874   1.458       .  S
C800        C889   1.500       .  S
C801        C829   1.511       .  S
C802        C803   1.406       .  A
C802        C807   1.415       .  A
C803        H812   1.084       .  S
C803        C804   1.411       .  A
C804        C805   1.417       .  A
C804        S808   1.803       .  S
C805        C806   1.406       .  A
C806        H813   1.084       .  S
C806        C807   1.404       .  A
C807        S809   1.805       .  S
S808        H811   1.405       .  S
S809        H810   1.407       .  S
C814        C815   1.409       .  A
C814        C819   1.400       .  A
C815        H824   1.085       .  S
C815        C816   1.398       .  A
C816        C817   1.411       .  A
C816        S820   1.800       .  S
C817        C818   1.414       .  A
C818        H825   1.084       .  S
C818        C819   1.395       .  A
C819        S821   1.802       .  S
S820        H823   1.407       .  S
S821        H822   1.406       .  S
C826        C827   1.409       .  A
C826        C831   1.408       .  A
C827        H836   1.083       .  S
C827        C828   1.406       .  A
C828        C829   1.415       .  A
C828        S832   1.794       .  S
C829        C830   1.419       .  A
C830        H837   1.083       .  S
C830        C831   1.409       .  A
C831        S833   1.800       .  S
S832        H835   1.407       .  S
S833        H834   1.406       .  S
C838        C839   1.403       .  A
C838        C843   1.407       .  A
C839        H848   1.085       .  S
C839        C840   1.392       .  A
C840        C841   1.406       .  A
C840        S844   1.803       .  S
C841        C842   1.401       .  A
C842        H849   1.085       .  S
C842        C843   1.397       .  A
C843        S845   1.801       .  S
S844        H847   1.405   1_655  S
S845        H846   1.406       .  S
C850        C851   1.415       .  A
C850        C855   1.411       .  A
C851        H860   1.084       .  S
C851        C852   1.394       .  A
C852        C853   1.400       .  A
C852        S856   1.802       .  S
C853        C854   1.409       .  A
C854        H861   1.085       .  S
C854        C855   1.399       .  A
C855        S857   1.800       .  S
S856        H859   1.406       .  S
S857        H858   1.407       .  S
C862        C863   1.409       .  A
C862        C867   1.420       .  A
C863        H872   1.083       .  S
C863        C864   1.404       .  A
C864        C865   1.411       .  A
C864        S868   1.802       .  S
C865        C866   1.403       .  A
C866        H873   1.084       .  S
C866        C867   1.407       .  A
C867        S869   1.799   1_556  S
S868        H871   1.405       .  S
S869        H870   1.406       .  S
C874        C875   1.402       .  A
C874        C879   1.406       .  A
C875        H884   1.081       .  S
C875        C876   1.398       .  A
C876        C877   1.407       .  A
C876        S880   1.803       .  S
C877        C878   1.403       .  A
C878        H885   1.085       .  S
C878        C879   1.388       .  A
C879        S881   1.803       .  S
S880        H883   1.406       .  S
S881        H882   1.405   1_655  S
C886        C887   1.394       .  A
C886        C891   1.419       .  A
C887        H896   1.085       .  S
C887        C888   1.396       .  A
C888        C889   1.430       .  A
C888        S892   1.808       .  S
C889        C890   1.405       .  A
C890        H897   1.084       .  S
C890        C891   1.414       .  A
C891        S893   1.801       .  S
S892        H895   1.408       .  S
S893        H894   1.407       .  S
C898        C997   1.500       .  S
C898        C899   1.392       .  A
C898        C903   1.422       .  A
C899        H908   1.085       .  S
C899        C900   1.391       .  A
C900        C901   1.429       .  A
C900        S904   1.802       .  S
C901        C902   1.402       .  A
C902        H909   1.083       .  S
C902        C903   1.406       .  A
C903        S905   1.799       .  S
S904        H907   1.408       .  S
S905        H906   1.401       .  S
C910        C911   1.403       .  A
C910        C915   1.427       .  A
C911        H920   1.082       .  S
C911        C912   1.388       .  A
C912        C913   1.418       .  A
C912        S916   1.808       .  S
C913        C914   1.402       .  A
C914        H921   1.082       .  S
C914        C915   1.419       .  A
C915        S917   1.793       .  S
S916        H919   1.408       .  S
S917        H918   1.403       .  S
C922        C923   1.413       .  A
C922        C927   1.415       .  A
C923        H932   1.080       .  S
C923        C924   1.391       .  A
C924        C925   1.407       .  A
C924        S928   1.809       .  S
C925        C926   1.411       .  A
C926        H933   1.083       .  S
C926        C927   1.410       .  A
C927        S929   1.793       .  S
S928        H931   1.407       .  S
S929        H930   1.407       .  S
C934        C996   1.502       .  S
C934        C935   1.413       .  A
C934        C939   1.416       .  A
C935        H944   1.081       .  S
C935        C936   1.417       .  A
C936        C937   1.410       .  A
C936        S940   1.794       .  S
C937        C938   1.407       .  A
C938        H945   1.083       .  S
C938        C939   1.386       .  A
C939        S941   1.808       .  S
S940        H943   1.407       .  S
S941        H942   1.396       .  S
C946        C947   1.411       .  A
C946        C951   1.415       .  A
C947        H956   1.083       .  S
C947        C948   1.399       .  A
C948        C949   1.404       .  A
C948        S952   1.801       .  S
C949        C950   1.406       .  A
C950        H957   1.084       .  S
C950        C951   1.396       .  A
C951        S953   1.805       .  S
S952        H955   1.406       .  S
S953        H954   1.394       .  S
C958        C959   1.403       .  A
C958        C963   1.419       .  A
C959        H968   1.083       .  S
C959        C960   1.397       .  A
C960        C961   1.416       .  A
C960        S964   1.804       .  S
C961        C962   1.394       .  A
C962        H969   1.084       .  S
C962        C963   1.395       .  A
C963        S965   1.794       .  S
S964        H967   1.407       .  S
S965        H966   1.404       .  S
C970        C971   1.403       .  A
C970        C975   1.420       .  A
C971        H980   1.082       .  S
C971        C972   1.397       .  A
C972        C973   1.412       .  A
C972        S976   1.802       .  S
C973        C974   1.394       .  A
C974        H981   1.083       .  S
C974        C975   1.402       .  A
S976        H979   1.407       .  S
S977        H978   1.407       .  S
C982        C983   1.404       .  A
C982        C987   1.406       .  A
C983        H992   1.084       .  S
C983        C984   1.399       .  A
C984        C985   1.418       .  A
C984        S988   1.802       .  S
C985        C986   1.411       .  A
C986        H993   1.083       .  S
C986        C987   1.400       .  A
C987        S989   1.802       .  S
S988        H991   1.394       .  S
S989        H990   1.406       .  S
C994       C1301   1.498   1_455  S
C995       C1289   1.492       .  S
C996       C1256   1.502   1_545  S
C997       C1241   1.519       .  S
C998       N1016   1.338       .  A
C998       C1035   1.472       .  S
C998       C1313   1.471       .  S
N999       N1016   1.315       .  A
N999       N1021   1.322       .  A
N999      Co1036   2.040       .  S
C1000      N1025   1.331       .  A
C1000      C1038   1.443       .  S
C1000      H1045   1.081       .  S
H1001      C1042   1.079       .  S
C1002      N1026   1.352       .  A
C1002      C1006   1.470       .  S
C1002      H1031   1.081       .  S
Co1003     N1021   2.135       .  S
Co1003     N1011   2.027       .  S
Co1003     N1043   2.028       .  S
Co1003     N1019   2.139       .  S
Co1003    Cl1047   2.428       .  S
N1004      C1042   1.359       .  A
N1004      N1011   1.311       .  A
N1004     Co1005   2.121       .  S
Co1005     N1008   2.033       .  S
Co1005     N1025   2.050       .  S
Co1005     N1012   2.087       .  S
Co1005    Cl1047   2.455       .  S
C1006      N1044   1.338       .  A
C1006      C1304   1.468       .  S
N1007      N1014   1.314       .  A
N1007      N1037   1.308       .  A
N1007     Co1040   2.023       .  S
N1008      N1026   1.321       .  A
N1008      N1044   1.316       .  A
N1009      C1038   1.366       .  A
N1009      N1019   1.336       .  A
H1010      C1035   1.080       .  S
N1011      N1032   1.309       .  A
N1012      N1030   1.316       .  A
N1012      N1017   1.326       .  A
C1013      N1017   1.350       .  A
C1013      C1041   1.452       .  S
C1013      C1208   1.458       .  S
N1014      C1029   1.361       .  A
N1014     Co1036   2.132       .  S
C1015      N1043   1.323       .  A
C1015      C1018   1.443       .  S
C1015      H1049   1.082       .  S
C1018      N1039   1.357       .  A
C1018      C1184   1.467       .  S
N1019      N1025   1.318       .  A
N1020      C1046   1.334       .  A
N1020      N1022   1.321       .  A
N1020     Co1036   2.065       .  S
N1021      C1035   1.353       .  A
N1022      N1050   1.334       .  A
N1022     Co1040   2.129       .  S
H1023      C1046   1.081       .  S
H1024      C1041   1.082       .  S
N1026     Co1040   2.132       .  S
N1027      N1039   1.330       .  A
N1027      N1043   1.318       .  A
N1027     Co1036   2.109       .  S
C1028      N1032   1.338       .  A
C1028      C1042   1.489       .  S
C1028      C1253   1.500       .  S
C1029      C1048   1.492       .  S
C1029      H1033   1.080       .  S
N1030      C1041   1.327       .  A
N1030     Co1040   2.042       .  S
C1034      N1050   1.361       .  A
C1034      C1046   1.448       .  S
C1034      C1196   1.482       .  S
Co1036    Cl1047   2.458       .  S
N1037      C1048   1.336       .  A
C1038      C1217   1.482       .  S
Co1040    Cl1047   2.429       .  S
C1048      C1268   1.499       .  S
C1051      N1069   1.337       .  A
C1051      C1088   1.471       .  S
C1051      C1292   1.468       .  S
N1052      N1069   1.316       .  A
N1052      N1074   1.320       .  A
N1052     Co1089   2.028       .  S
C1053      N1078   1.327       .  A
C1053      C1091   1.439       .  S
C1053      H1098   1.081       .  S
H1054      C1095   1.081       .  S
C1055      N1079   1.354       .  A
C1055      C1059   1.471       .  S
C1055      H1084   1.074       .  S
Co1056     N1074   2.132       .  S
Co1056     N1064   2.024       .  S
Co1056     N1096   2.023       .  S
Co1056     N1072   2.153       .  S
Co1056    Cl1100   2.418       .  S
N1057      C1095   1.364       .  A
N1057      N1064   1.314       .  A
N1057     Co1058   2.136       .  S
Co1058     N1061   2.018       .  S
Co1058     N1078   2.033       .  S
Co1058     N1065   2.099       .  S
Co1058    Cl1100   2.466       .  S
C1059      N1097   1.335       .  A
C1059      C1280   1.470       .  S
N1060      N1067   1.315       .  A
N1060      N1090   1.311       .  A
N1060     Co1093   2.023       .  S
N1061      N1079   1.320       .  A
N1061      N1097   1.312       .  A
N1062      C1091   1.369       .  A
N1062      N1072   1.340       .  A
H1063      C1088   1.081       .  S
N1064      N1085   1.309       .  A
N1065      N1083   1.318       .  A
N1065      N1070   1.327       .  A
C1066      N1070   1.353       .  A
C1066      C1094   1.449       .  S
C1066      C1169   1.458       .  S
N1067      C1082   1.358       .  A
N1067     Co1089   2.135       .  S
C1068      N1096   1.322       .  A
C1068      C1071   1.443       .  S
C1068      H1102   1.082       .  S
C1071      N1092   1.358       .  A
C1071      C1145   1.467       .  S
N1072      N1078   1.317       .  A
N1073      C1099   1.331       .  A
N1073      N1075   1.320       .  A
N1073     Co1089   2.049       .  S
N1074      C1088   1.350       .  A
N1075      N1103   1.337       .  A
N1075     Co1093   2.150       .  S
H1076      C1099   1.081       .  S
H1077      C1094   1.082       .  S
N1079     Co1093   2.140       .  S
N1080      N1092   1.330       .  A
N1080      N1096   1.318       .  A
N1080     Co1089   2.115       .  S
C1081      N1085   1.332       .  A
C1081      C1095   1.489       .  S
C1081      C1244   1.492       .  S
C1082      C1101   1.487       .  S
C1082      H1086   1.081       .  S
N1083      C1094   1.327       .  A
N1083     Co1093   2.044       .  S
C1087      N1103   1.366       .  A
C1087      C1099   1.443       .  S
C1087      C1133   1.487       .  S
Co1089    Cl1100   2.460       .  S
N1090      C1101   1.332       .  A
C1091      C1157   1.493       .  S
Co1093    Cl1100   2.428       .  S
C1101      C1232   1.494       .  S
O1104      C1112   1.253       .  A
O1104     Co1124   1.843       .  S
O1105      C1113   1.254       .  A
O1105     Co1125   1.846       .  S
O1106      C1114   1.278       .  A
O1107      C1115   1.280       .  A
O1108      C1114   1.274       .  A
O1108     Co1125   1.983   1_556  S
O1109      C1115   1.272       .  A
O1109     Co1124   1.977   1_554  S
O1110      C1113   1.300       .  A
O1110     Co1127   2.118       .  S
O1111      C1112   1.302       .  A
O1111     Co1126   2.129   1_565  S
C1112      C1181   1.483       .  S
C1113      C1148   1.484       .  S
C1114      C1193   1.500       .  S
C1115      C1136   1.495       .  S
O1116      C1129   1.244   1_455  A
O1117      C1130   1.243   1_455  A
O1118      C1131   1.248       .  A
O1119      C1132   1.257       .  A
O1120      C1132   1.283       .  A
O1121      C1131   1.284       .  A
O1122      C1129   1.254       .  A
O1123      C1130   1.251       .  A
Co1125     O1128   1.938       .  S
Co1127     O1128   2.113       .  S
C1129      C1172   1.456       .  S
C1130      C1205   1.458       .  S
C1131      C1220   1.500       .  S
C1132      C1160   1.511       .  S
C1133      C1134   1.406       .  A
C1133      C1138   1.415       .  A
C1134      H1143   1.084       .  S
C1134      C1135   1.411       .  A
C1135      C1136   1.417       .  A
C1135      S1139   1.803   1_565  S
C1136      C1137   1.406       .  A
C1137      H1144   1.084       .  S
C1137      C1138   1.404       .  A
C1138      S1140   1.805       .  S
S1139      H1142   1.405       .  S
S1140      H1141   1.407       .  S
C1145      C1146   1.409       .  A
C1145      C1150   1.400       .  A
C1146      H1155   1.085       .  S
C1146      C1147   1.398       .  A
C1147      C1148   1.411       .  A
C1147      S1151   1.800       .  S
C1148      C1149   1.414       .  A
C1149      H1156   1.084       .  S
C1149      C1150   1.395       .  A
C1150      S1152   1.802       .  S
S1151      H1154   1.407       .  S
S1152      H1153   1.406       .  S
C1157      C1158   1.409       .  A
C1157      C1162   1.408       .  A
C1158      H1167   1.083       .  S
C1158      C1159   1.406       .  A
C1159      C1160   1.415       .  A
C1159      S1163   1.794       .  S
C1160      C1161   1.419       .  A
C1161      H1168   1.083       .  S
C1161      C1162   1.409       .  A
C1162      S1164   1.800       .  S
S1163      H1166   1.407       .  S
S1164      H1165   1.406       .  S
C1169      C1170   1.403       .  A
C1169      C1174   1.407       .  A
C1170      H1179   1.085       .  S
C1170      C1171   1.392       .  A
C1171      C1172   1.406       .  A
C1171      S1175   1.803       .  S
C1172      C1173   1.401       .  A
C1173      H1180   1.085       .  S
C1173      C1174   1.397       .  A
C1174      S1176   1.801       .  S
S1175      H1178   1.405   1_655  S
S1176      H1177   1.406       .  S
C1181      C1182   1.415       .  A
C1181      C1186   1.411       .  A
C1182      H1191   1.084       .  S
C1182      C1183   1.394       .  A
C1183      C1184   1.400       .  A
C1183      S1187   1.802       .  S
C1184      C1185   1.409       .  A
C1185      H1192   1.085       .  S
C1185      C1186   1.399       .  A
C1186      S1188   1.800       .  S
S1187      H1190   1.406       .  S
S1188      H1189   1.407       .  S
C1193      C1194   1.409       .  A
C1193      C1198   1.420       .  A
C1194      H1203   1.083       .  S
C1194      C1195   1.404       .  A
C1195      C1196   1.411       .  A
C1195      S1199   1.802       .  S
C1196      C1197   1.403       .  A
C1197      H1204   1.084       .  S
C1197      C1198   1.407       .  A
C1198      S1200   1.799   1_556  S
S1199      H1202   1.405       .  S
S1200      H1201   1.406       .  S
C1205      C1206   1.402       .  A
C1205      C1210   1.406       .  A
C1206      H1215   1.081       .  S
C1206      C1207   1.398       .  A
C1207      C1208   1.407       .  A
C1207      S1211   1.803       .  S
C1208      C1209   1.403       .  A
C1209      H1216   1.085       .  S
C1209      C1210   1.388       .  A
C1210      S1212   1.803       .  S
S1211      H1214   1.406       .  S
S1212      H1213   1.405   1_655  S
C1217      C1218   1.394       .  A
C1217      C1222   1.419       .  A
C1218      H1227   1.085       .  S
C1218      C1219   1.396       .  A
C1219      C1220   1.430       .  A
C1219      S1223   1.808       .  S
C1220      C1221   1.405       .  A
C1221      H1228   1.084       .  S
C1221      C1222   1.414       .  A
C1222      S1224   1.801       .  S
S1223      H1226   1.408       .  S
S1224      H1225   1.407       .  S
C1229      C1230   1.392       .  A
C1229      C1234   1.422       .  A
C1230      H1239   1.085       .  S
C1230      C1231   1.391       .  A
C1231      C1232   1.429       .  A
C1231      S1235   1.802       .  S
C1232      C1233   1.402       .  A
C1233      H1240   1.083       .  S
C1233      C1234   1.406       .  A
C1234      S1236   1.799       .  S
S1235      H1238   1.408       .  S
S1236      H1237   1.401       .  S
C1241      C1242   1.403       .  A
C1241      C1246   1.427       .  A
C1242      H1251   1.082       .  S
C1242      C1243   1.388       .  A
C1243      C1244   1.418       .  A
C1243      S1247   1.808       .  S
C1244      C1245   1.402       .  A
C1245      H1252   1.082       .  S
C1245      C1246   1.419       .  A
C1246      S1248   1.793       .  S
S1247      H1250   1.408       .  S
S1248      H1249   1.403       .  S
C1253      C1254   1.413       .  A
C1253      C1258   1.415       .  A
C1254      H1263   1.080       .  S
C1254      C1255   1.391       .  A
C1255      C1256   1.407       .  A
C1255      S1259   1.809       .  S
C1256      C1257   1.411       .  A
C1257      H1264   1.083       .  S
C1257      C1258   1.410       .  A
C1258      S1260   1.793       .  S
S1259      H1262   1.407       .  S
S1260      H1261   1.407       .  S
C1265      C1266   1.413       .  A
C1265      C1270   1.416       .  A
C1266      H1275   1.081       .  S
C1266      C1267   1.417       .  A
C1267      C1268   1.410       .  A
C1267      S1271   1.794       .  S
C1268      C1269   1.407       .  A
C1269      H1276   1.083       .  S
C1269      C1270   1.386       .  A
C1270      S1272   1.808       .  S
S1271      H1274   1.407       .  S
S1272      H1273   1.396       .  S
C1277      C1278   1.411       .  A
C1277      C1282   1.415       .  A
C1278      H1287   1.083       .  S
C1278      C1279   1.399       .  A
C1279      C1280   1.404       .  A
C1279      S1283   1.801       .  S
C1280      C1281   1.406       .  A
C1281      H1288   1.084       .  S
C1281      C1282   1.396       .  A
C1282      S1284   1.805       .  S
S1283      H1286   1.406       .  S
S1284      H1285   1.394       .  S
C1289      C1290   1.403       .  A
C1289      C1294   1.419       .  A
C1290      H1299   1.083       .  S
C1290      C1291   1.397       .  A
C1291      C1292   1.416       .  A
C1291      S1295   1.804       .  S
C1292      C1293   1.394       .  A
C1293      H1300   1.084       .  S
C1293      C1294   1.395       .  A
C1294      S1296   1.794       .  S
S1295      H1298   1.407       .  S
S1296      H1297   1.404       .  S
C1301      C1302   1.403       .  A
C1301      C1306   1.420       .  A
C1302      H1311   1.082       .  S
C1302      C1303   1.397       .  A
C1303      C1304   1.412       .  A
C1303      S1307   1.802       .  S
C1304      C1305   1.394       .  A
C1305      H1312   1.083       .  S
C1305      C1306   1.402       .  A
S1307      H1310   1.407       .  S
S1308      H1309   1.407       .  S
C1313      C1314   1.404       .  A
C1313      C1318   1.406       .  A
C1314      H1323   1.084       .  S
C1314      C1315   1.399       .  A
C1315      C1316   1.418       .  A
C1315      S1319   1.802       .  S
C1316      C1317   1.411       .  A
C1317      H1324   1.083       .  S
C1317      C1318   1.400       .  A
C1318      S1320   1.802       .  S
S1319      H1322   1.394       .  S
S1320      H1321   1.406       .  S
