geometry optimzed in LAMMPS
_audit_creation_date              2020-11-30 
_audit_creation_method            'lammps2cif' 
_symmetry_space_group_name_H-M    'P1' 
_symmetry_Int_Tables_number       1 
_symmetry_cell_setting            triclinic 
loop_ 
_symmetry_equiv_pos_as_xyz 
  x,y,z 
_cell_length_a                    45.24573468 
_cell_length_b                    44.992502734365225 
_cell_length_c                    33.33337752956404 
_cell_angle_alpha                 89.98170277571535 
_cell_angle_beta                  90.14158910909445 
_cell_angle_gamma                 121.32598794287695 
loop_ 
_atom_site_label 
_atom_site_type_symbol 
_atom_site_fract_x 
_atom_site_fract_y 
_atom_site_fract_z 
_atom_site_charge 
C1          C  0.33064340  0.16698764  0.71064888     0.47600
H2          H  0.33054879  0.16699669  0.67741777    -0.01400
C3          C  0.33048395  0.16647050  0.78886041     0.47600
H4          H  0.33033691  0.16620871  0.82208791    -0.01400
C5          C  0.34935889  0.20349963  0.72929775    -0.15100
C6          C  0.29434558  0.14851748  0.72899264    -0.14900
C7          C  0.34826266  0.14884941  0.72908013    -0.15300
C8          C  0.34941580  0.20317387  0.77058335    -0.15200
C9          C  0.29418067  0.14834007  0.77013271    -0.14800
C10         C  0.34814911  0.14843867  0.77028889    -0.15100
C11         C  0.16221840  0.33788472  0.28982724     0.47600
H12         H  0.16168587  0.33691130  0.32299395    -0.01400
C13         C  0.16324399  0.34016420  0.21166645     0.47600
H14         H  0.16368835  0.34116715  0.17849470    -0.01400
C15         C  0.19881692  0.35730298  0.27215905    -0.15100
C16         C  0.14456469  0.30189174  0.26972173    -0.14900
C17         C  0.14442733  0.35613373  0.27213341    -0.15300
C18         C  0.19935126  0.35817452  0.23091452    -0.15200
C19         C  0.14471953  0.30307477  0.22854212    -0.14800
C20         C  0.14509618  0.35744373  0.23096664    -0.15100
O21         O  0.43158277  0.49335587  0.05478427    -0.76400
C22         C  0.03743696  0.08403553  0.06169385     0.84700
O23         O  0.47015832  0.02600176  0.91785415    -0.77500
O24         O  0.07813887  0.04319882  0.97117535    -0.79000
O25         O  0.00556021  0.44615191  0.05715219    -0.78800
O26         O  0.42988833  0.44306628  0.05529975    -0.77400
Zn27       Zn  0.47256935  0.02590661  0.01995091     1.55700
O28         O  0.05561681  0.49665044  0.05482019    -0.78800
Cd29       Cd  0.47266839  0.45420932  0.02170896     1.59700
Cd30       Cd  0.49509538  0.00159162  0.94021569     1.59600
O31         O  0.45589511  0.41883083  0.97533702    -0.78800
O32         O  0.49594683  0.00270477  0.00040512    -1.89300
Cd33       Cd  0.04492303  0.02776500  0.01930666     1.59900
O34         O  0.46935803  0.45072137  0.91981137    -0.78700
O35         O  0.05596751  0.07148310  0.05180025    -0.77400
C36         C  0.45551625  0.04012584  0.93548597     0.85100
C37         C  0.41743602  0.46162078  0.06558718     0.84800
O38         O  0.00560518  0.06912576  0.05172680    -0.76300
C39         C  0.03737701  0.46524536  0.06673358     0.85600
O40         O  0.45463894  0.04125764  0.97365862    -0.76400
C41         C  0.45611534  0.42129885  0.93726016     0.85700
C42         C  0.07467848  0.04065814  0.93317299     0.86100
O43         O  0.04484644  0.02587103  0.91673207    -0.78900
O44         O  0.06190346  0.01200671  0.55350675    -0.76400
C45         C  0.45713073  0.42352401  0.56417948     0.84700
O46         O  0.02108384  0.47831898  0.41743961    -0.77500
O47         O  0.41507109  0.46230663  0.47557976    -0.79000
O48         O  0.49042013  0.06449153  0.55126873    -0.78800
O49         O  0.06323534  0.06209851  0.55742447    -0.77400
Zn50       Zn  0.02071229  0.47996784  0.51954658     1.55700
O51         O  0.44137371  0.01315935  0.55585044    -0.78800
Cd52       Cd  0.02308296  0.05324268  0.51989069     1.59700
Cd53       Cd  0.49686841  0.00345633  0.44030361     1.59600
O54         O  0.04421129  0.08757141  0.47224137    -0.78800
O55         O  0.49806174  0.00398649  0.50045659    -1.89300
Cd56       Cd  0.45006339  0.47996515  0.52190674     1.59900
O57         O  0.02281445  0.05377235  0.41799415    -0.78700
O58         O  0.43900620  0.43681860  0.55552761    -0.77400
C59         C  0.03604069  0.46446945  0.43507249     0.85100
C60         C  0.07552670  0.04309190  0.56638236     0.84800
O61         O  0.48841302  0.43749925  0.55259238    -0.76300
C62         C  0.45934793  0.04562160  0.56358028     0.85600
O63         O  0.03748647  0.46392675  0.47322009    -0.76400
C64         C  0.04084676  0.08367486  0.43428476     0.85700
C65         C  0.41708601  0.46324509  0.43748559     0.86100
O66         O  0.44622345  0.47788142  0.41959164    -0.78900
C67         C  0.07941340  0.21577935  0.18303497     0.14800
C68         C  0.09949357  0.21160881  0.15408230     0.01800
C69         C  0.13427219  0.23807625  0.14892424     0.16700
C70         C  0.14882546  0.26811387  0.17268183     0.26200
C71         C  0.12889605  0.27192951  0.20219493    -0.40200
C72         C  0.09394417  0.24575534  0.20677518     0.33200
C73         C  0.08414062  0.17941624  0.12970258     0.01800
F74         F  0.15405687  0.23483858  0.12075929    -0.12500
F75         F  0.07377377  0.24938675  0.23400478    -0.13000
C76         C  0.05592270  0.17042390  0.10422640     0.16700
C77         C  0.04064092  0.13941643  0.08219512     0.26200
C78         C  0.05342189  0.11683760  0.08516646    -0.40100
C79         C  0.08192760  0.12612756  0.11053460     0.33100
C80         C  0.09707238  0.15709233  0.13260878     0.14800
F81         F  0.04347963  0.19199550  0.10028397    -0.12500
F82         F  0.09460103  0.10478671  0.11490199    -0.13000
F83         F  0.01386090  0.13194585  0.05725643    -0.15300
F84         F  0.12385416  0.16487296  0.15768958    -0.13800
F85         F  0.04586170  0.19043904  0.18882893    -0.13800
F86         F  0.18265293  0.29298373  0.16766857    -0.15300
C87         C  0.34746489  0.45173867  0.13677413     0.14800
C88         C  0.32388853  0.41563307  0.13574451     0.01800
C89         C  0.33146815  0.39462096  0.11202349     0.16700
C90         C  0.36205983  0.40944549  0.08972155     0.26200
C91         C  0.38551182  0.44573756  0.09023199    -0.40200
C92         C  0.37781911  0.46668024  0.11408082     0.33200
C93         C  0.29145829  0.40007640  0.15939965     0.01800
F94         F  0.30879387  0.35977134  0.10961566    -0.12500
F95         F  0.39999177  0.50163047  0.11615392    -0.13000
C96         C  0.26851802  0.41212427  0.15455186     0.16700
C97         C  0.23856147  0.39839464  0.17781647     0.26200
C98         C  0.23103774  0.37242296  0.20625075    -0.40100
C99         C  0.25339771  0.35967002  0.21045932     0.33100
C100        C  0.28347886  0.37351574  0.18737484     0.14800
F101        F  0.27500310  0.43702147  0.12699706    -0.12500
F102        F  0.24583757  0.33346913  0.23653680    -0.13000
F103        F  0.21728679  0.41106192  0.17330387    -0.15300
F104        F  0.30513600  0.36141825  0.19287354    -0.13800
F105        F  0.34136064  0.47255973  0.16038347    -0.13800
F106        F  0.36814602  0.38827613  0.06673208    -0.15300
C107        C  0.12564182  0.42424696  0.19041863     0.14800
C108        C  0.10011527  0.40458864  0.16156639     0.01800
C109        C  0.09002962  0.36968284  0.15510850     0.16700
C110        C  0.10507153  0.35458065  0.17738960     0.26200
C111        C  0.13023737  0.37408702  0.20659209    -0.40200
C112        C  0.14078488  0.40918659  0.21258342     0.33200
C113        C  0.08420301  0.42055310  0.13795774     0.01800
F114        F  0.06581285  0.35034231  0.12694316    -0.12500
F115        F  0.16606797  0.42900548  0.23948562    -0.13000
C116        C  0.10457067  0.44872962  0.11239921     0.16700
C117        C  0.08949506  0.46354672  0.08959421     0.26200
C118        C  0.05364032  0.45035541  0.09190871    -0.40100
C119        C  0.03337842  0.42222987  0.11787424     0.33100
C120        C  0.04855635  0.40751031  0.14065457     0.14800
F121        F  0.13898627  0.46130424  0.10875572    -0.12500
F122        F  0.99892440  0.40928941  0.12180666    -0.13000
F123        F  0.10987869  0.49006795  0.06430592    -0.15300
F124        F  0.02850802  0.38075282  0.16583146    -0.13800
F125        F  0.13552175  0.45790031  0.19747228    -0.13800
F126        F  0.09448242  0.32064479  0.17111856    -0.15300
C127        C  0.09267695  0.22991701  0.34407255     0.14800
C128        C  0.10528385  0.20768434  0.33741869     0.01800
C129        C  0.13153753  0.21679472  0.30909356     0.16700
C130        C  0.14464866  0.24766531  0.28719234     0.26200
C131        C  0.13146552  0.26958730  0.29332551    -0.40200
C132        C  0.10583001  0.26078466  0.32234419     0.33200
C133        C  0.09042692  0.17487407  0.36006618     0.01800
F134        F  0.14414955  0.19566170  0.30244684    -0.12500
F135        F  0.09288866  0.28164545  0.32883866    -0.13000
C136        C  0.05752688  0.14683765  0.34991158     0.16700
C137        C  0.04161845  0.11691813  0.37371194     0.26200
C138        C  0.05827687  0.11479484  0.40834431    -0.40100
C139        C  0.09152753  0.14281876  0.41812521     0.33100
C140        C  0.10760744  0.17252848  0.39388718     0.14800
F141        F  0.04055756  0.14883404  0.31733989    -0.12500
F142        F  0.10851571  0.14136138  0.45099661    -0.13000
F143        F  0.00926909  0.09068457  0.36392240    -0.15300
F144        F  0.13953201  0.19942072  0.40397057    -0.13800
F145        F  0.06751446  0.22155774  0.37165763    -0.13800
F146        F  0.17053418  0.25644159  0.26048634    -0.15300
C147        C  0.28657677  0.42223581  0.31589392     0.14800
C148        C  0.29031970  0.40205046  0.34525385     0.01800
C149        C  0.26327793  0.36766626  0.35183392     0.16700
C150        C  0.23334410  0.35323274  0.32830323     0.26200
C151        C  0.23002653  0.37308405  0.29802179    -0.40200
C152        C  0.25648932  0.40798604  0.29272829     0.33200
C153        C  0.32254560  0.41694200  0.36887580     0.01800
F154        F  0.26628100  0.34783489  0.38036897    -0.12500
F155        F  0.25291860  0.42848418  0.26569649    -0.13000
C156        C  0.32192234  0.42096006  0.41047497     0.16700
C157        C  0.35251421  0.43575839  0.43275676     0.26200
C158        C  0.38451959  0.44694904  0.41372482    -0.40100
C159        C  0.38483138  0.44238205  0.37188209     0.33100
C160        C  0.35409515  0.42752064  0.34975373     0.14800
F161        F  0.29168392  0.41122831  0.42944434    -0.12500
F162        F  0.41472813  0.45191481  0.35224017    -0.13000
F163        F  0.35062343  0.43953091  0.47291990    -0.15300
F164        F  0.35501508  0.42302241  0.30958821    -0.13800
F165        F  0.31191560  0.45593938  0.31014513    -0.13800
F166        F  0.20810396  0.31954502  0.33431930    -0.15300
C167        C  0.06919593  0.43617043  0.34655478     0.14800
C168        C  0.08329194  0.41860817  0.36600848     0.01800
C169        C  0.08185811  0.41616857  0.40797121     0.16700
C170        C  0.06644576  0.43084449  0.43025949     0.26200
C171        C  0.05221425  0.44863126  0.41102526    -0.40200
C172        C  0.05385192  0.45107862  0.36873264     0.33200
C173        C  0.09888012  0.40217515  0.34257380     0.01800
F174        F  0.09477388  0.39881340  0.42742151    -0.12500
F175        F  0.04080063  0.46800147  0.34861304    -0.13000
C176        C  0.13399951  0.41312322  0.34746788     0.16700
C177        C  0.14857735  0.39746909  0.32530934     0.26200
C178        C  0.12832803  0.37088128  0.29769892    -0.40100
C179        C  0.09306834  0.35941794  0.29346904     0.33100
C180        C  0.07848805  0.37501162  0.31563860     0.14800
F181        F  0.15434525  0.43959146  0.37294912    -0.12500
F182        F  0.07270745  0.33288816  0.26808628    -0.13000
F183        F  0.18278590  0.40921637  0.32960571    -0.15300
F184        F  0.04429221  0.36326746  0.31128594    -0.13800
F185        F  0.07072012  0.43927587  0.30597405    -0.13800
F186        F  0.06521150  0.42714016  0.47075361    -0.15300
C187        C  0.40252536  0.08063184  0.90658601     0.14800
C188        C  0.40994243  0.08722641  0.86559845     0.01800
C189        C  0.43205886  0.07810354  0.84740518     0.16700
C190        C  0.44670295  0.06263967  0.86988589     0.26200
C191        C  0.43942692  0.05592324  0.91120593    -0.40200
C192        C  0.41693996  0.06501630  0.92918358     0.33200
C193        C  0.39393612  0.10287667  0.84155901     0.01800
F194        F  0.43986213  0.08467288  0.80784968    -0.12500
F195        F  0.40830700  0.05832233  0.96853266    -0.13000
C196        C  0.40362130  0.13771569  0.84751969     0.16700
C197        C  0.38854295  0.15243658  0.82446683     0.26200
C198        C  0.36352099  0.13248637  0.79521832    -0.40100
C199        C  0.35329588  0.09739313  0.78995906     0.33100
C200        C  0.36863632  0.08281811  0.81269913     0.14800
F201        F  0.42816457  0.15761023  0.87513199    -0.12500
F202        F  0.32787759  0.07700460  0.76347272    -0.13000
F203        F  0.39904487  0.18643734  0.82996018    -0.15300
F204        F  0.35839312  0.04889635  0.80710126    -0.13800
F205        F  0.38072897  0.08875982  0.92457650    -0.13800
F206        F  0.46840981  0.05478726  0.85115574    -0.15300
C207        C  0.41613621  0.29067699  0.81397286     0.14800
C208        C  0.39627215  0.29564455  0.84239144     0.01800
C209        C  0.36148703  0.26971800  0.84818418     0.16700
C210        C  0.34645172  0.23935680  0.82518641     0.26200
C211        C  0.36604051  0.23466102  0.79605389    -0.40200
C212        C  0.40118340  0.26019737  0.79112533     0.33200
C213        C  0.41185390  0.32777718  0.86634615     0.01800
F214        F  0.34197380  0.27421665  0.87556955    -0.12500
F215        F  0.42107203  0.25536436  0.76465037    -0.13000
C216        C  0.41925830  0.35917513  0.84867073     0.16700
C217        C  0.43348810  0.38958250  0.87162136     0.26200
C218        C  0.44074205  0.38905272  0.91274895    -0.40100
C219        C  0.43325901  0.35725082  0.93017750     0.33100
C220        C  0.41885504  0.32694074  0.90712389     0.14800
F221        F  0.41210263  0.36019078  0.80927845    -0.12500
F222        F  0.44028165  0.35537471  0.96940715    -0.13000
F223        F  0.43956454  0.41931334  0.85360294    -0.15300
F224        F  0.41205934  0.29671485  0.92448401    -0.13800
F225        F  0.45006801  0.31518383  0.80879989    -0.13800
F226        F  0.31246402  0.21507120  0.83041763    -0.15300
C227        C  0.20742843  0.12771398  0.81108526     0.14800
C228        C  0.19912543  0.09960321  0.83663290     0.01800
C229        C  0.22266653  0.08830142  0.84110619     0.16700
C230        C  0.25407571  0.10489293  0.82035326     0.26200
C231        C  0.26220114  0.13274442  0.79452235    -0.40200
C232        C  0.23882879  0.14429196  0.79032793     0.33200
C233        C  0.16704417  0.08363445  0.86072497     0.01800
F234        F  0.21493728  0.06085569  0.86519342    -0.12500
F235        F  0.24665833  0.17191317  0.76650755    -0.13000
C236        C  0.13431521  0.06647114  0.84230943     0.16700
C237        C  0.10420295  0.05228807  0.86559267     0.26200
C238        C  0.10635711  0.05526453  0.90786262    -0.40100
C239        C  0.13947255  0.07238752  0.92595878     0.33100
C240        C  0.16931697  0.08632053  0.90261885     0.14800
F241        F  0.13153485  0.06311028  0.80176808    -0.12500
F242        F  0.14332962  0.07604165  0.96639376    -0.13000
F243        F  0.07307878  0.03562228  0.84660515    -0.15300
F244        F  0.20070556  0.10323793  0.92101172    -0.13800
F245        F  0.18547179  0.13961132  0.80705171    -0.13800
F246        F  0.27603451  0.09300123  0.82435192    -0.15300
C247        C  0.44056407  0.11243631  0.60655666     0.14800
C248        C  0.41266452  0.09181946  0.63226132     0.01800
C249        C  0.40037512  0.05611665  0.63546218     0.16700
C250        C  0.41544644  0.04115001  0.61313191     0.26200
C251        C  0.44353689  0.06170195  0.58741362    -0.40200
C252        C  0.45599668  0.09760352  0.58450162     0.33200
C253        C  0.39643218  0.10739614  0.65604800     0.01800
F254        F  0.37413317  0.03578227  0.66096620    -0.12500
F255        F  0.48255537  0.11829655  0.55955061    -0.13000
C256        C  0.36066120  0.09414238  0.65293693     0.16700
C257        C  0.34508507  0.10785232  0.67657918     0.26200
C258        C  0.36497057  0.13482351  0.70379028    -0.40100
C259        C  0.40076030  0.14860639  0.70643075     0.33100
C260        C  0.41640032  0.13496118  0.68277798     0.14800
F261        F  0.34084933  0.06800409  0.62684454    -0.12500
F262        F  0.42055985  0.17549652  0.73166528    -0.13000
F263        F  0.31040937  0.09416437  0.67375841    -0.15300
F264        F  0.45091627  0.14814462  0.68662086    -0.13800
F265        F  0.45242244  0.14686100  0.60216718    -0.13800
F266        F  0.40292655  0.00659419  0.61747284    -0.15300
C267        C  0.44657162  0.35230304  0.63477231     0.14800
C268        C  0.41077446  0.32843873  0.63250380     0.01800
C269        C  0.39034658  0.33575912  0.60748403     0.16700
C270        C  0.40538243  0.36666403  0.58537328     0.26200
C271        C  0.44125765  0.39083530  0.58777436    -0.40200
C272        C  0.46172471  0.38319965  0.61256787     0.33200
C273        C  0.39462830  0.29619148  0.65678117     0.01800
F274        F  0.35583986  0.31262551  0.60398639    -0.12500
F275        F  0.49627844  0.40604893  0.61619811    -0.13000
C276        C  0.37063265  0.29084391  0.68683055     0.16700
C277        C  0.35557163  0.26059365  0.71011540     0.26200
C278        C  0.36466863  0.23539731  0.70413022    -0.40100
C279        C  0.38815385  0.24045003  0.67348909     0.33100
C280        C  0.40307726  0.27065362  0.65006083     0.14800
F281        F  0.36209433  0.31517714  0.69388585    -0.12500
F282        F  0.39718360  0.21644890  0.66674252    -0.13000
F283        F  0.33158594  0.25562944  0.73796171    -0.15300
F284        F  0.42551705  0.27485183  0.62048869    -0.13800
F285        F  0.46673517  0.34601376  0.65926479    -0.13800
F286        F  0.38490877  0.37247205  0.56081597    -0.15300
C287        C  0.20648284  0.08245087  0.68708618     0.14800
C288        C  0.20067111  0.10295547  0.66029478     0.01800
C289        C  0.22625680  0.13812579  0.65496513     0.16700
C290        C  0.25719964  0.15275838  0.67664330     0.26200
C291        C  0.26271140  0.13240304  0.70404483    -0.40200
C292        C  0.23742038  0.09700978  0.70861836     0.33200
C293        C  0.16828123  0.08729605  0.63702910     0.01800
F294        F  0.22130814  0.15812168  0.62853502    -0.12500
F295        F  0.24281376  0.07651924  0.73373030    -0.13000
C296        C  0.14429737  0.09764952  0.64358449     0.16700
C297        C  0.11379140  0.08297356  0.62099892     0.26200
C298        C  0.10691935  0.05769925  0.59156872    -0.40100
C299        C  0.13090119  0.04711739  0.58553998     0.33100
C300        C  0.16134093  0.06186434  0.60807429     0.14800
F301        F  0.15028498  0.12163730  0.67221309    -0.12500
F302        F  0.12551384  0.02338376  0.55683438    -0.13000
F303        F  0.09071543  0.09297746  0.62843306    -0.15300
F304        F  0.18453570  0.05194929  0.60099506    -0.13800
F305        F  0.18197182  0.04842232  0.69265172    -0.13800
F306        F  0.28135025  0.18698837  0.67173382    -0.15300
C307        C  0.33067619  0.66700144  0.71062951     0.47600
H308        H  0.33058659  0.66701025  0.67739831    -0.01400
C309        C  0.33050706  0.66648793  0.78883882     0.47600
H310        H  0.33035561  0.66623333  0.82206636    -0.01400
C311        C  0.34937886  0.70351390  0.72927280    -0.15100
C312        C  0.29437512  0.64852153  0.72896798    -0.14900
C313        C  0.34830240  0.64887235  0.72906763    -0.15300
C314        C  0.34942949  0.70318866  0.77055636    -0.15200
C315        C  0.29420423  0.64834685  0.77010988    -0.14800
C316        C  0.34818275  0.64846036  0.77027905    -0.15100
C317        C  0.16218499  0.83790345  0.28985889     0.47600
H318        H  0.16166340  0.83694395  0.32302579    -0.01400
C319        C  0.16320223  0.84017869  0.21169815     0.47600
H320        H  0.16364280  0.84118269  0.17852651    -0.01400
C321        C  0.19877954  0.85730445  0.27218402    -0.15100
C322        C  0.14451604  0.80190262  0.26976165    -0.14900
C323        C  0.14441075  0.85616955  0.27216550    -0.15300
C324        C  0.19931264  0.85817483  0.23093973    -0.15200
C325        C  0.14465872  0.80308805  0.22857752    -0.14800
C326        C  0.14507400  0.85747547  0.23100090    -0.15100
O327        O  0.43156812  0.99337816  0.05478685    -0.76400
C328        C  0.03742119  0.58401199  0.06179781     0.84700
O329        O  0.47017029  0.52602093  0.91789731    -0.77500
O330        O  0.07817145  0.54324534  0.97122347    -0.79000
O331        O  0.00552616  0.94613726  0.05711819    -0.78800
O332        O  0.42986188  0.94308192  0.05530228    -0.77400
Zn333      Zn  0.47258761  0.52590516  0.01998603     1.55700
O334        O  0.05558318  0.99663511  0.05478678    -0.78800
Cd335      Cd  0.47262739  0.95419824  0.02168974     1.59700
Cd336      Cd  0.49512196  0.50161278  0.94024306     1.59600
O337        O  0.45583663  0.91881252  0.97532080    -0.78800
O338        O  0.49597776  0.50271920  0.00043415    -1.89300
Cd339      Cd  0.04495017  0.52778730  0.01935512     1.59900
O340        O  0.46932828  0.95070564  0.91979305    -0.78700
O341        O  0.05596878  0.57148181  0.05189082    -0.77400
C342        C  0.45552423  0.54013822  0.93553813     0.85100
C343        C  0.41741894  0.96164365  0.06559818     0.84800
O344        O  0.00559405  0.56909863  0.05181037    -0.76300
C345        C  0.03734335  0.96523030  0.06669966     0.85600
O346        O  0.45465360  0.54126859  0.97371094    -0.76400
C347        C  0.45607017  0.92128349  0.93724320     0.85700
C348        C  0.07471511  0.54070225  0.93321997     0.86100
O349        O  0.04488366  0.52590667  0.91677382    -0.78900
O350        O  0.06197263  0.51202071  0.55347860    -0.76400
C351        C  0.45709472  0.92351815  0.56411283     0.84700
O352        O  0.02110933  0.97841573  0.41739936    -0.77500
O353        O  0.41504396  0.96230395  0.47554806    -0.79000
O354        O  0.49045546  0.56450144  0.55125161    -0.78800
O355        O  0.06326971  0.56209703  0.55741912    -0.77400
Zn356      Zn  0.02067760  0.97998573  0.51951372     1.55700
O357        O  0.44141318  0.51316993  0.55585696    -0.78800
Cd358      Cd  0.02311185  0.55323165  0.51989540     1.59700
Cd359      Cd  0.49690408  0.50342567  0.44033173     1.59600
O360        O  0.04423964  0.58755131  0.47223877    -0.78800
O361        O  0.49809590  0.50396879  0.50048228    -1.89300
Cd362      Cd  0.45002926  0.97997026  0.52187767     1.59900
O363        O  0.02288878  0.55373731  0.41799907    -0.78700
O364        O  0.43897224  0.93681959  0.55548610    -0.77400
C365        C  0.03607908  0.96457953  0.43503159     0.85100
C366        C  0.07558535  0.54310668  0.56634951     0.84800
O367        O  0.48837197  0.93749050  0.55250933    -0.76300
C368        C  0.45938276  0.54563677  0.56356325     0.85600
O369        O  0.03750064  0.96401016  0.47317920    -0.76400
C370        C  0.04089971  0.58364602  0.43428179     0.85700
C371        C  0.41705304  0.96322206  0.43745388     0.86100
O372        O  0.44618721  0.97786111  0.41955204    -0.78900
C373        C  0.07935807  0.71572864  0.18319914     0.14800
C374        C  0.09942066  0.71156320  0.15421809     0.01800
C375        C  0.13417430  0.73806249  0.14897706     0.16700
C376        C  0.14872242  0.76813073  0.17268042     0.26200
C377        C  0.12881427  0.77194244  0.20222736    -0.40200
C378        C  0.09388309  0.74573454  0.20688685     0.33200
C379        C  0.08406641  0.67935834  0.12986468     0.01800
F380        F  0.15394097  0.73482307  0.12078855    -0.12500
F381        F  0.07373275  0.74935262  0.23415960    -0.13000
C382        C  0.05585070  0.67036201  0.10438586     0.16700
C383        C  0.04058473  0.63936275  0.08234224     0.26200
C384        C  0.05337921  0.61679482  0.08530493    -0.40100
C385        C  0.08187297  0.62608025  0.11069257     0.33100
C386        C  0.09700410  0.65703991  0.13277784     0.14800
F387        F  0.04339878  0.69192640  0.10044773    -0.12500
F388        F  0.09454990  0.60474252  0.11506187    -0.13000
F389        F  0.01380991  0.63189282  0.05739535    -0.15300
F390        F  0.12378243  0.66482537  0.15786676    -0.13800
F391        F  0.04583203  0.69035396  0.18907323    -0.13800
F392        F  0.18253239  0.79302545  0.16759883    -0.15300
C393        C  0.34747121  0.95176484  0.13683722     0.14800
C394        C  0.32388212  0.91566044  0.13579572     0.01800
C395        C  0.33145125  0.89465088  0.11205316     0.16700
C396        C  0.36203989  0.90947433  0.08974345     0.26200
C397        C  0.38550037  0.94576484  0.09025973    -0.40200
C398        C  0.37782080  0.96670622  0.11413034     0.33200
C399        C  0.29144595  0.90010210  0.15945059     0.01800
F400        F  0.30876792  0.85980424  0.10962756    -0.12500
F401        F  0.40000188  0.00165455  0.11621092    -0.13000
C402        C  0.26852570  0.91217950  0.15463719     0.16700
C403        C  0.23855830  0.89843767  0.17788725     0.26200
C404        C  0.23100240  0.87242523  0.20627610    -0.40100
C405        C  0.25334397  0.85964774  0.21045600     0.33100
C406        C  0.28343379  0.87350165  0.18738253     0.14800
F407        F  0.27503867  0.93711635  0.12712719    -0.12500
F408        F  0.24575895  0.83341784  0.23649901    -0.13000
F409        F  0.21730668  0.91113574  0.17341004    -0.15300
F410        F  0.30506726  0.86137197  0.19285148    -0.13800
F411        F  0.34138390  0.97258530  0.16046988    -0.13800
F412        F  0.36811369  0.88830474  0.06673762    -0.15300
C413        C  0.12564717  0.92428810  0.19041468     0.14800
C414        C  0.10009351  0.90461586  0.16159276     0.01800
C415        C  0.08997857  0.86969684  0.15517591     0.16700
C416        C  0.10501684  0.85459635  0.17746470     0.26200
C417        C  0.13021355  0.87411797  0.20662975    -0.40200
C418        C  0.14078998  0.90922915  0.21258392     0.33200
C419        C  0.08417997  0.92057447  0.13797267     0.01800
F420        F  0.06573689  0.85034046  0.12704070    -0.12500
F421        F  0.16610120  0.92906023  0.23945164    -0.13000
C422        C  0.10455050  0.94876530  0.11243218     0.16700
C423        C  0.08947013  0.96356620  0.08960665     0.26200
C424        C  0.05360740  0.95034421  0.09188050    -0.40100
C425        C  0.03334138  0.92220005  0.11782095     0.33100
C426        C  0.04852434  0.90749957  0.14062529     0.14800
F427        F  0.13897424  0.96136906  0.10882295    -0.12500
F428        F  0.99887666  0.90922068  0.12170555    -0.13000
F429        F  0.10985931  0.99010314  0.06433881    -0.15300
F430        F  0.02847001  0.88072747  0.16578224    -0.13800
F431        F  0.13555374  0.95795310  0.19743584    -0.13800
F432        F  0.09439620  0.82064766  0.17123620    -0.15300
C433        C  0.09288296  0.73005055  0.34437481     0.14800
C434        C  0.10526589  0.70766786  0.33743529     0.01800
C435        C  0.13129599  0.71663523  0.30884757     0.16700
C436        C  0.14442614  0.74752832  0.28698989     0.26200
C437        C  0.13143909  0.76959271  0.29337259    -0.40200
C438        C  0.10601961  0.76091993  0.32264765     0.33200
C439        C  0.09042737  0.67485916  0.36007873     0.01800
F440        F  0.14368698  0.69535081  0.30192168    -0.12500
F441        F  0.09326898  0.78191078  0.32940655    -0.13000
C442        C  0.05757200  0.64677825  0.34986772     0.16700
C443        C  0.04168533  0.61685042  0.37365844     0.26200
C444        C  0.05832189  0.61476490  0.40833491    -0.40100
C445        C  0.09153217  0.64283580  0.41816709     0.33100
C446        C  0.10758794  0.67255426  0.39394267     0.14800
F447        F  0.04061895  0.64874116  0.31725952    -0.12500
F448        F  0.10850523  0.64141742  0.45107576    -0.13000
F449        F  0.00937307  0.59057116  0.36381710    -0.15300
F450        F  0.13947643  0.69948827  0.40406748    -0.13800
F451        F  0.06794440  0.72182896  0.37222530    -0.13800
F452        F  0.17014988  0.75618555  0.26008719    -0.15300
C453        C  0.28654842  0.92221064  0.31590589     0.14800
C454        C  0.29027402  0.90202109  0.34527346     0.01800
C455        C  0.26321526  0.86765079  0.35187637     0.16700
C456        C  0.23328493  0.85322524  0.32834268     0.26200
C457        C  0.22998635  0.87307690  0.29804585    -0.40200
C458        C  0.25645952  0.90797365  0.29274649     0.33200
C459        C  0.32249916  0.91689598  0.36888435     0.01800
F460        F  0.26619771  0.84782683  0.38043898    -0.12500
F461        F  0.25289644  0.92847916  0.26571849    -0.13000
C462        C  0.32189974  0.92102156  0.41046367     0.16700
C463        C  0.35249660  0.93582224  0.43273314     0.26200
C464        C  0.38448105  0.94690404  0.41370693    -0.40100
C465        C  0.38476538  0.94221170  0.37188737     0.33100
C466        C  0.35402346  0.92735320  0.34976965     0.14800
F467        F  0.29168175  0.91139574  0.42942088    -0.12500
F468        F  0.41463810  0.95161405  0.35226349    -0.13000
F469        F  0.35063420  0.93971222  0.47287558    -0.15300
F470        F  0.35491065  0.92274166  0.30962486    -0.13800
F471        F  0.31190549  0.95590507  0.31014475    -0.13800
F472        F  0.20802810  0.81954612  0.33437411    -0.15300
C473        C  0.06931037  0.93635438  0.34652202     0.14800
C474        C  0.08337698  0.91876676  0.36597876     0.01800
C475        C  0.08192137  0.91630666  0.40793785     0.16700
C476        C  0.06650235  0.93097614  0.43022228     0.26200
C477        C  0.05228798  0.94877817  0.41098643    -0.40200
C478        C  0.05396421  0.95126215  0.36869679     0.33200
C479        C  0.09894460  0.90231371  0.34255194     0.01800
F480        F  0.09481663  0.89893192  0.42738623    -0.12500
F481        F  0.04094496  0.96821552  0.34857876    -0.13000
C482        C  0.13407540  0.91329071  0.34738607     0.16700
C483        C  0.14862970  0.89760234  0.32524909     0.26200
C484        C  0.12834181  0.87095005  0.29772392    -0.40100
C485        C  0.09307300  0.85946373  0.29355146     0.33100
C486        C  0.07851652  0.87509124  0.31570038     0.14800
F487        F  0.15445049  0.93981504  0.37278946    -0.12500
F488        F  0.07268325  0.83288289  0.26824112    -0.13000
F489        F  0.18284969  0.90937758  0.32947713    -0.15300
F490        F  0.04431076  0.86332495  0.31141094    -0.13800
F491        F  0.07085778  0.93947585  0.30594293    -0.13800
F492        F  0.06523841  0.92724425  0.47071340    -0.15300
C493        C  0.40243269  0.58054090  0.90665101     0.14800
C494        C  0.40989292  0.58720034  0.86567808     0.01800
C495        C  0.43207179  0.57815449  0.84749380     0.16700
C496        C  0.44673507  0.56270505  0.86996620     0.26200
C497        C  0.43941738  0.55592500  0.91126942    -0.40200
C498        C  0.41686826  0.56493966  0.92924041     0.33200
C499        C  0.39388375  0.60285194  0.84164076     0.01800
F500        F  0.43992060  0.58478940  0.80795551    -0.12500
F501        F  0.40819422  0.55817990  0.96857291    -0.13000
C502        C  0.40350233  0.63766400  0.84767527     0.16700
C503        C  0.38846035  0.65240163  0.82458459     0.26200
C504        C  0.36353309  0.63249329  0.79522843    -0.40100
C505        C  0.35335668  0.59741766  0.78991288     0.33100
C506        C  0.36867000  0.58283062  0.81268280     0.14800
F507        F  0.42795115  0.65752033  0.87539479    -0.12500
F508        F  0.32800418  0.57705160  0.76334822    -0.13000
F509        F  0.39890593  0.68638019  0.83015389    -0.15300
F510        F  0.35848299  0.54893096  0.80701520    -0.13800
F511        F  0.38057610  0.58859161  0.92463379    -0.13800
F512        F  0.46850625  0.55493429  0.85124740    -0.15300
C513        C  0.41612314  0.79068435  0.81396735     0.14800
C514        C  0.39623909  0.79565644  0.84235114     0.01800
C515        C  0.36144530  0.76974126  0.84810708     0.16700
C516        C  0.34642301  0.73937984  0.82511187     0.26200
C517        C  0.36603488  0.73467639  0.79601953    -0.40200
C518        C  0.40118241  0.76020645  0.79111974     0.33200
C519        C  0.41181173  0.82778073  0.86631272     0.01800
F520        F  0.34191450  0.77424931  0.87545738    -0.12500
F521        F  0.42108556  0.75536856  0.76467241    -0.13000
C522        C  0.41915450  0.85916655  0.84866214     0.16700
C523        C  0.43338338  0.88956854  0.87162026     0.26200
C524        C  0.44069655  0.88904303  0.91272847    -0.40100
C525        C  0.43327764  0.85725416  0.93013108     0.33100
C526        C  0.41887327  0.82694847  0.90707054     0.14800
F527        F  0.41194441  0.86017538  0.80928774    -0.12500
F528        F  0.44037082  0.85539066  0.96933757    -0.13000
F529        F  0.43940045  0.91928927  0.85363081    -0.15300
F530        F  0.41213637  0.79673211  0.92440210    -0.13800
F531        F  0.45006111  0.81518568  0.80882769    -0.13800
F532        F  0.31242777  0.71510158  0.83030449    -0.15300
C533        C  0.20740734  0.62764693  0.81101444     0.14800
C534        C  0.19917803  0.59962993  0.83668893     0.01800
C535        C  0.22278431  0.58841873  0.84125871     0.16700
C536        C  0.25417647  0.60499957  0.82046922     0.26200
C537        C  0.26222553  0.63275341  0.79450871    -0.40200
C538        C  0.23879389  0.64421958  0.79022942     0.33200
C539        C  0.16709436  0.58366034  0.86078570     0.01800
F540        F  0.21513521  0.56106738  0.86547302    -0.12500
F541        F  0.24655284  0.67176240  0.76630394    -0.13000
C542        C  0.13436462  0.56648605  0.84236867     0.16700
C543        C  0.10425000  0.55231857  0.86564615     0.26200
C544        C  0.10639858  0.55530958  0.90791459    -0.40100
C545        C  0.13951264  0.57243906  0.92601474     0.33100
C546        C  0.16936094  0.58636548  0.90268024     0.14800
F547        F  0.13158494  0.56309860  0.80182953    -0.12500
F548        F  0.14336475  0.57610718  0.96644912    -0.13000
F549        F  0.07312827  0.53565312  0.84665341    -0.15300
F550        F  0.20074610  0.60329837  0.92108004    -0.13800
F551        F  0.18539252  0.63946421  0.80688305    -0.13800
F552        F  0.27619672  0.59319206  0.82456959    -0.15300
C553        C  0.44060232  0.61247509  0.60648506     0.14800
C554        C  0.41268132  0.59186300  0.63216594     0.01800
C555        C  0.40036774  0.55615423  0.63535417     0.16700
C556        C  0.41544342  0.54117957  0.61304792     0.26200
C557        C  0.44356325  0.56172769  0.58736475    -0.40200
C558        C  0.45603962  0.59763351  0.58445329     0.33200
C559        C  0.39646002  0.60744930  0.65595856     0.01800
F560        F  0.37409926  0.53582059  0.66082825    -0.12500
F561        F  0.48262214  0.61832355  0.55952865    -0.13000
C562        C  0.36069050  0.59420549  0.65285487     0.16700
C563        C  0.34511883  0.60789956  0.67653105     0.26200
C564        C  0.36500659  0.63484699  0.70376858    -0.40100
C565        C  0.40079568  0.64862419  0.70639911     0.33100
C566        C  0.41643200  0.63499482  0.68271106     0.14800
F567        F  0.34087430  0.56808907  0.62674015    -0.12500
F568        F  0.42059832  0.67549447  0.73165597    -0.13000
F569        F  0.31044339  0.59421643  0.67371859    -0.15300
F570        F  0.45094746  0.64817180  0.68654432    -0.13800
F571        F  0.45248039  0.64690434  0.60209949    -0.13800
F572        F  0.40289772  0.50661817  0.61738056    -0.15300
C573        C  0.44656355  0.85232923  0.63473505     0.14800
C574        C  0.41076619  0.82846006  0.63248375     0.01800
C575        C  0.39032854  0.83576677  0.60746210     0.16700
C576        C  0.40535547  0.86666068  0.58533056     0.26200
C577        C  0.44123074  0.89083373  0.58771258    -0.40200
C578        C  0.46170719  0.88321332  0.61250855     0.33200
C579        C  0.39463227  0.79621511  0.65676707     0.01800
F580        F  0.35582123  0.81262986  0.60398159    -0.12500
F581        F  0.49626151  0.90606742  0.61612123    -0.13000
C582        C  0.37061755  0.79084796  0.68680054     0.16700
C583        C  0.35556019  0.76059356  0.71007912     0.26200
C584        C  0.36468095  0.73541325  0.70410607    -0.40100
C585        C  0.38818694  0.74048652  0.67348262     0.33100
C586        C  0.40310675  0.77069395  0.65006049     0.14800
F587        F  0.36205652  0.81516568  0.69384658    -0.12500
F588        F  0.39723921  0.71650113  0.66674670    -0.13000
F589        F  0.33155364  0.75560864  0.73790603    -0.15300
F590        F  0.42556753  0.77491155  0.62050587    -0.13800
F591        F  0.46673713  0.84605766  0.65923186    -0.13800
F592        F  0.38487352  0.87245668  0.56077296    -0.15300
C593        C  0.20650479  0.58247665  0.68705855     0.14800
C594        C  0.20072731  0.60298246  0.66023341     0.01800
C595        C  0.22633259  0.63813981  0.65487973     0.16700
C596        C  0.25726811  0.65276233  0.67656837     0.26200
C597        C  0.26274883  0.63240902  0.70400787    -0.40200
C598        C  0.23743384  0.59702544  0.70860650     0.33200
C599        C  0.16835097  0.58733566  0.63695513     0.01800
F600        F  0.22140579  0.65813332  0.62842280    -0.12500
F601        F  0.24279382  0.57653659  0.73376076    -0.13000
C602        C  0.14429936  0.59758036  0.64363081     0.16700
C603        C  0.11379302  0.58290144  0.62104702     0.26200
C604        C  0.10699293  0.55773470  0.59150283    -0.40100
C605        C  0.13105348  0.54727627  0.58533562     0.33100
C606        C  0.16149233  0.56202407  0.60787106     0.14800
F607        F  0.15022260  0.62146235  0.67237257    -0.12500
F608        F  0.12573875  0.52366638  0.55649860    -0.13000
F609        F  0.09064450  0.59278981  0.62859451    -0.15300
F610        F  0.18476068  0.55222532  0.60067862    -0.13800
F611        F  0.18196933  0.54845837  0.69263862    -0.13800
F612        F  0.28143864  0.68698347  0.67163740    -0.15300
C613        C  0.83069415  0.16701375  0.71064817     0.47600
H614        H  0.83061867  0.16704470  0.67741702    -0.01400
C615        C  0.83048667  0.16643651  0.78885854     0.47600
H616        H  0.83031707  0.16614556  0.82208564    -0.01400
C617        C  0.84938079  0.20351224  0.72933450    -0.15100
C618        C  0.79438576  0.14851150  0.72895998    -0.14900
C619        C  0.84831750  0.14887848  0.72907328    -0.15300
C620        C  0.84941593  0.20315470  0.77062150    -0.15200
C621        C  0.79419503  0.14830536  0.77009909    -0.14800
C622        C  0.84818188  0.14843764  0.77028116    -0.15100
C623        C  0.66221348  0.33792803  0.28983385     0.47600
H624        H  0.66168045  0.33695863  0.32300089    -0.01400
C625        C  0.66324148  0.34019262  0.21167213     0.47600
H626        H  0.66368868  0.34118778  0.17850036    -0.01400
C627        C  0.69881046  0.35732894  0.27216557    -0.15100
C628        C  0.64454536  0.30193370  0.26973754    -0.14900
C629        C  0.64443677  0.35618559  0.27213016    -0.15300
C630        C  0.69934676  0.35819532  0.23092189    -0.15200
C631        C  0.64470523  0.30310578  0.22855851    -0.14800
C632        C  0.64510736  0.35749132  0.23096247    -0.15100
O633        O  0.93156645  0.49333601  0.05478976    -0.76400
C634        C  0.53746284  0.08405870  0.06168676     0.84700
O635        O  0.97015782  0.02598886  0.91787507    -0.77500
O636        O  0.57817031  0.04321865  0.97114566    -0.79000
O637        O  0.50555106  0.44616605  0.05711337    -0.78800
O638        O  0.92989884  0.44306055  0.05536370    -0.77400
Zn639      Zn  0.97255172  0.02588313  0.01996401     1.55700
O640        O  0.55560737  0.49666552  0.05480405    -0.78800
Cd641      Cd  0.97266680  0.45419317  0.02176118     1.59700
Cd642      Cd  0.99507104  0.00155489  0.94024381     1.59600
O643        O  0.95586831  0.41880716  0.97540003    -0.78800
O644        O  0.99593039  0.00267866  0.00043361    -1.89300
Cd645      Cd  0.54494267  0.02779071  0.01927662     1.59900
O646        O  0.96930314  0.45067869  0.91986013    -0.78700
O647        O  0.55599513  0.07151175  0.05177746    -0.77400
C648        C  0.95551554  0.04011392  0.93550459     0.85100
C649        C  0.91743286  0.46160956  0.06562016     0.84800
O650        O  0.50562939  0.06914587  0.05172355    -0.76300
C651        C  0.53736357  0.46525918  0.06671262     0.85600
O652        O  0.95462460  0.04123621  0.97367603    -0.76400
C653        C  0.95606416  0.42126217  0.93732313     0.85700
C654        C  0.57470514  0.04069739  0.93314197     0.86100
O655        O  0.54487149  0.02592875  0.91670739    -0.78900
O656        O  0.56191020  0.01199820  0.55349782    -0.76400
C657        C  0.95712790  0.42354322  0.56423398     0.84700
O658        O  0.52111739  0.47840947  0.41741474    -0.77500
O659        O  0.91506198  0.46229353  0.47557663    -0.79000
O660        O  0.99041965  0.06449312  0.55120830    -0.78800
O661        O  0.56325371  0.06209384  0.55745533    -0.77400
Zn662      Zn  0.52071655  0.47998234  0.51952978     1.55700
O663        O  0.94138040  0.01316114  0.55584227    -0.78800
Cd664      Cd  0.52309440  0.05325923  0.51993870     1.59700
Cd665      Cd  0.99685794  0.00339833  0.44029558     1.59600
O666        O  0.54421586  0.08761566  0.47231031    -0.78800
O667        O  0.99805358  0.00396026  0.50044673    -1.89300
Cd668      Cd  0.95005633  0.47995519  0.52190026     1.59900
O669        O  0.52279775  0.05384427  0.41804394    -0.78700
O670        O  0.93899859  0.43682491  0.55554771    -0.77400
C671        C  0.53606392  0.46454483  0.43503749     0.85100
C672        C  0.57554223  0.04307946  0.56638927     0.84800
O673        O  0.98841071  0.43751262  0.55265022    -0.76300
C674        C  0.95935703  0.04562706  0.56354945     0.85600
O675        O  0.53749234  0.46397467  0.47318376    -0.76400
C676        C  0.54083206  0.08373873  0.43435283     0.85700
C677        C  0.91707590  0.46322137  0.43748246     0.86100
O678        O  0.94621285  0.47784235  0.41958834    -0.78900
C679        C  0.57940819  0.21579953  0.18306405     0.14800
C680        C  0.59949713  0.21161388  0.15413537     0.01800
C681        C  0.63428145  0.23807638  0.14899430     0.16700
C682        C  0.64882936  0.26812006  0.17274189     0.26200
C683        C  0.62888890  0.27195152  0.20222515    -0.40200
C684        C  0.59393305  0.24578443  0.20678962     0.33200
C685        C  0.58414446  0.17942014  0.12974972     0.01800
F686        F  0.65407658  0.23483179  0.12085021    -0.12500
F687        F  0.57375174  0.24943317  0.23398651    -0.13000
C688        C  0.55589203  0.17040068  0.10431992     0.16700
C689        C  0.54061925  0.13940116  0.08227363     0.26200
C690        C  0.55344494  0.11685614  0.08517520    -0.40100
C691        C  0.58198666  0.12617366  0.11049422     0.33100
C692        C  0.59711924  0.15712829  0.13258957     0.14800
F693        F  0.54340661  0.19194043  0.10043255    -0.12500
F694        F  0.59471086  0.10487057  0.11479272    -0.13000
F695        F  0.51380154  0.13190639  0.05738762    -0.15300
F696        F  0.62393319  0.16492924  0.15762582    -0.13800
F697        F  0.54585205  0.19046710  0.18884829    -0.13800
F698        F  0.68266099  0.29298359  0.16774389    -0.15300
C699        C  0.84741156  0.45174703  0.13670319     0.14800
C700        C  0.82387157  0.41563259  0.13574343     0.01800
C701        C  0.83149153  0.39460902  0.11210235     0.16700
C702        C  0.86209029  0.40943027  0.08981641     0.26200
C703        C  0.88550600  0.44573011  0.09025711    -0.40200
C704        C  0.87777000  0.46668474  0.11402098     0.33200
C705        C  0.79144242  0.40007809  0.15939749     0.01800
F706        F  0.80885061  0.35974907  0.10975702    -0.12500
F707        F  0.89990304  0.50164538  0.11602125    -0.13000
C708        C  0.76848188  0.41209710  0.15451301     0.16700
C709        C  0.73853425  0.39838066  0.17778966     0.26200
C710        C  0.73103243  0.37244085  0.20626041    -0.40100
C711        C  0.75340804  0.35970968  0.21049874     0.33100
C712        C  0.78348738  0.37355239  0.18741422     0.14800
F713        F  0.77493802  0.43695280  0.12691138    -0.12500
F714        F  0.74586467  0.33353108  0.23660355    -0.13000
F715        F  0.71724453  0.41102725  0.17324787    -0.15300
F716        F  0.80516615  0.36148614  0.19295357    -0.13800
F717        F  0.84126911  0.47258273  0.16023495    -0.13800
F718        F  0.86821861  0.38824689  0.06691171    -0.15300
C719        C  0.62556794  0.42425968  0.19049551     0.14800
C720        C  0.60010000  0.40461995  0.16157940     0.01800
C721        C  0.59009317  0.36974569  0.15504099     0.16700
C722        C  0.60514517  0.35465119  0.17731592     0.26200
C723        C  0.63025337  0.37413738  0.20658163    -0.40200
C724        C  0.64073624  0.40921409  0.21263759     0.33200
C725        C  0.58418268  0.42057827  0.13797115     0.01800
F726        F  0.56594469  0.35042910  0.12680212    -0.12500
F727        F  0.66598258  0.42902871  0.23957905    -0.13000
C728        C  0.60457143  0.44883585  0.11252434     0.16700
C729        C  0.58949641  0.46364624  0.08970954     0.26200
C730        C  0.55361951  0.45036862  0.09190185    -0.40100
C731        C  0.53333464  0.42216043  0.11775870     0.33100
C732        C  0.54851319  0.40744714  0.14054876     0.14800
F733        F  0.63901220  0.46149885  0.10899627    -0.12500
F734        F  0.49885455  0.40912622  0.12157296    -0.13000
F735        F  0.60990994  0.49025134  0.06453208    -0.15300
F736        F  0.52844083  0.38060717  0.16561761    -0.13800
F737        F  0.63536794  0.45788062  0.19763110    -0.13800
F738        F  0.59462106  0.32074033  0.17097325    -0.15300
C739        C  0.59256690  0.22996043  0.34404617     0.14800
C740        C  0.60522262  0.20775614  0.33748973     0.01800
C741        C  0.63153305  0.21688487  0.30923708     0.16700
C742        C  0.64464888  0.24774133  0.28730760     0.26200
C743        C  0.63142533  0.26963691  0.29335329    -0.40200
C744        C  0.60573446  0.26082038  0.32230020     0.33200
C745        C  0.59035888  0.17495526  0.36015858     0.01800
F746        F  0.64419228  0.19578026  0.30268332    -0.12500
F747        F  0.59275728  0.28166148  0.32870713    -0.13000
C748        C  0.55743409  0.14693670  0.35005143     0.16700
C749        C  0.54154096  0.11701518  0.37384785     0.26200
C750        C  0.55823860  0.11487149  0.40843088    -0.40100
C751        C  0.59150671  0.14288237  0.41817439     0.33100
C752        C  0.60757283  0.17259352  0.39393699     0.14800
F753        F  0.54043210  0.14894754  0.31752169    -0.12500
F754        F  0.60852713  0.14140807  0.45100389    -0.13000
F755        F  0.50917246  0.09079640  0.36410102    -0.15300
F756        F  0.63951809  0.19947071  0.40397985    -0.13800
F757        F  0.56734893  0.22158530  0.37155887    -0.13800
F758        F  0.67057741  0.25653166  0.26066010    -0.15300
C759        C  0.78655367  0.42225443  0.31593047     0.14800
C760        C  0.79030972  0.40204997  0.34525331     0.01800
C761        C  0.76328135  0.36765268  0.35179703     0.16700
C762        C  0.73334500  0.35322988  0.32827317     0.26200
C763        C  0.73001692  0.37310093  0.29802766    -0.40200
C764        C  0.75646840  0.40801010  0.29276210     0.33200
C765        C  0.82253578  0.41693470  0.36887301     0.01800
F766        F  0.76630049  0.34779893  0.38028776    -0.12500
F767        F  0.75288926  0.42851702  0.26575126    -0.13000
C768        C  0.82190379  0.42088328  0.41048418     0.16700
C769        C  0.85249502  0.43567504  0.43276572     0.26200
C770        C  0.88450936  0.44693033  0.41372139    -0.40100
C771        C  0.88482990  0.44243395  0.37186484     0.33100
C772        C  0.85409395  0.42757672  0.34973759     0.14800
F773        F  0.79165643  0.41108934  0.42946793    -0.12500
F774        F  0.91473593  0.45203749  0.35220503    -0.13000
F775        F  0.85059255  0.43937316  0.47294274    -0.15300
F776        F  0.85502350  0.42314569  0.30955838    -0.13800
F777        F  0.81187802  0.45596953  0.31021940    -0.13800
F778        F  0.70811372  0.31953344  0.33425601    -0.15300
C779        C  0.56911807  0.43615666  0.34650297     0.14800
C780        C  0.58330645  0.41868266  0.36596190     0.01800
C781        C  0.58197179  0.41633783  0.40793234     0.16700
C782        C  0.56657097  0.43102191  0.43022348     0.26200
C783        C  0.55224191  0.44871519  0.41098445    -0.40200
C784        C  0.55377795  0.45106714  0.36868376     0.33200
C785        C  0.59889364  0.40224634  0.34253160     0.01800
F786        F  0.59497370  0.39906576  0.42739199    -0.12500
F787        F  0.54062214  0.46788988  0.34855776    -0.13000
C788        C  0.63401490  0.41319901  0.34742461     0.16700
C789        C  0.64858943  0.39753235  0.32528661     0.26200
C790        C  0.62833755  0.37093363  0.29769005    -0.40100
C791        C  0.59307837  0.35946807  0.29345667     0.33100
C792        C  0.57849875  0.37506876  0.31561222     0.14800
F793        F  0.65436651  0.43968464  0.37288353    -0.12500
F794        F  0.57271904  0.33293255  0.26807955    -0.13000
F795        F  0.68279881  0.40928265  0.32958206    -0.15300
F796        F  0.54430095  0.36331635  0.31126211    -0.13800
F797        F  0.57054621  0.43917313  0.30591319    -0.13800
F798        F  0.56545068  0.42742151  0.47072846    -0.15300
C799        C  0.90245575  0.08053262  0.90656768     0.14800
C800        C  0.90999102  0.08725778  0.86561793     0.01800
C801        C  0.93221533  0.07825837  0.84746377     0.16700
C802        C  0.94684483  0.06278091  0.86994518     0.26200
C803        C  0.93944485  0.05592724  0.91122437    -0.40200
C804        C  0.91685657  0.06490319  0.92916494     0.33200
C805        C  0.89398600  0.10290192  0.84156836     0.01800
F806        F  0.94013407  0.08495864  0.80794778    -0.12500
F807        F  0.90810756  0.05807342  0.96847167    -0.13000
C808        C  0.90361551  0.13771947  0.84757432     0.16700
C809        C  0.88853824  0.15243363  0.82450751     0.26200
C810        C  0.86356593  0.13249462  0.79520706    -0.40100
C811        C  0.85339265  0.09741895  0.78990723     0.33100
C812        C  0.86874007  0.08285503  0.81265356     0.14800
F813        F  0.92810042  0.15759913  0.87524886    -0.12500
F814        F  0.82801215  0.07703214  0.76338170    -0.13000
F815        F  0.89898891  0.18641674  0.83004576    -0.15300
F816        F  0.85855386  0.04895302  0.80700938    -0.13800
F817        F  0.88055774  0.08854444  0.92451668    -0.13800
F818        F  0.96866340  0.05505543  0.85126212    -0.15300
C819        C  0.91607161  0.29067847  0.81402672     0.14800
C820        C  0.89620574  0.29558335  0.84250319     0.01800
C821        C  0.86144915  0.26959942  0.84834761     0.16700
C822        C  0.84643724  0.23925100  0.82532802     0.26200
C823        C  0.86602397  0.23462121  0.79612953    -0.40200
C824        C  0.90114739  0.26020746  0.79116816     0.33200
C825        C  0.91175975  0.32771525  0.86645594     0.01800
F826        F  0.84193698  0.27403178  0.87579904    -0.12500
F827        F  0.92104602  0.25543590  0.76464487    -0.13000
C828        C  0.91912678  0.35910069  0.84877833     0.16700
C829        C  0.93336656  0.38951580  0.87171510     0.26200
C830        C  0.94066748  0.38900614  0.91283008    -0.40100
C831        C  0.93321242  0.35721517  0.93026392     0.33100
C832        C  0.91879880  0.32689718  0.90722454     0.14800
F833        F  0.91193135  0.36009747  0.80939599    -0.12500
F834        F  0.94027976  0.35535953  0.96948218    -0.13000
F835        F  0.93941165  0.41923519  0.85369561    -0.15300
F836        F  0.91204124  0.29668457  0.92458617    -0.13800
F837        F  0.94997919  0.31524108  0.80880457    -0.13800
F838        F  0.81247062  0.21491515  0.83060282    -0.15300
C839        C  0.70743843  0.12769688  0.81101235     0.14800
C840        C  0.69911256  0.09957065  0.83654230     0.01800
C841        C  0.72262916  0.08823768  0.84100258     0.16700
C842        C  0.75404426  0.10482125  0.82026078     0.26200
C843        C  0.76219954  0.13269816  0.79445911    -0.40200
C844        C  0.73884559  0.14426905  0.79026871     0.33200
C845        C  0.66704300  0.08363049  0.86064918     0.01800
F846        F  0.71487299  0.06077561  0.86507377    -0.12500
F847        F  0.74670255  0.17191028  0.76647053    -0.13000
C848        C  0.63430669  0.06639589  0.84225551     0.16700
C849        C  0.60420415  0.05222911  0.86555474     0.26200
C850        C  0.60637677  0.05530108  0.90781760    -0.40100
C851        C  0.63950197  0.07250939  0.92589039     0.33100
C852        C  0.66933671  0.08641763  0.90253462     0.14800
F853        F  0.63151081  0.06294826  0.80172245    -0.12500
F854        F  0.64337675  0.07627508  0.96631511    -0.13000
F855        F  0.57307096  0.03547703  0.84659066    -0.15300
F856        F  0.70073607  0.10340707  0.92089906    -0.13800
F857        F  0.68549933  0.13961627  0.80698771    -0.13800
F858        F  0.77598200  0.09290256  0.82424516    -0.15300
C859        C  0.94060532  0.11245830  0.60653829     0.14800
C860        C  0.91272915  0.09185356  0.63227686     0.01800
C861        C  0.90045096  0.05615423  0.63550390     0.16700
C862        C  0.91550113  0.04117704  0.61315457     0.26200
C863        C  0.94356411  0.06171635  0.58739741    -0.40200
C864        C  0.95602114  0.09761618  0.58446988     0.33200
C865        C  0.89649686  0.10743489  0.65605456     0.01800
F866        F  0.87423849  0.03583303  0.66104782    -0.12500
F867        F  0.98255947  0.11829799  0.55948962    -0.13000
C868        C  0.86071574  0.09414055  0.65298692     0.16700
C869        C  0.84513815  0.10785276  0.67661982     0.26200
C870        C  0.86503197  0.13486639  0.70377855    -0.40100
C871        C  0.90083012  0.14869296  0.70637372     0.33100
C872        C  0.91647337  0.13504661  0.68272820     0.14800
F873        F  0.84089401  0.06795817  0.62694762    -0.12500
F874        F  0.92063136  0.17562142  0.73156178    -0.13000
F875        F  0.81045304  0.09412207  0.67384882    -0.15300
F876        F  0.95099994  0.14827319  0.68652695    -0.13800
F877        F  0.95245433  0.14687887  0.60212472    -0.13800
F878        F  0.90298793  0.00662400  0.61751379    -0.15300
C879        C  0.94658466  0.35239005  0.63492654     0.14800
C880        C  0.91079196  0.32851022  0.63264735     0.01800
C881        C  0.89035844  0.33580548  0.60760600     0.16700
C882        C  0.90538701  0.36669580  0.58546917     0.26200
C883        C  0.94126006  0.39087698  0.58786802    -0.40200
C884        C  0.96173051  0.38327319  0.61269801     0.33200
C885        C  0.89465775  0.29625842  0.65691178     0.01800
F886        F  0.85585495  0.31265795  0.60410708    -0.12500
F887        F  0.99628037  0.40613861  0.61633474    -0.13000
C888        C  0.87067236  0.29089853  0.68697861     0.16700
C889        C  0.85560478  0.26062912  0.71023036     0.26200
C890        C  0.86468923  0.23542797  0.70419632    -0.40100
C891        C  0.88816900  0.24049828  0.67354007     0.33100
C892        C  0.90309550  0.27071920  0.65014333     0.14800
F893        F  0.86214753  0.31523569  0.69407883    -0.12500
F894        F  0.89719161  0.21649781  0.66674781    -0.13000
F895        F  0.83162652  0.25565287  0.73809318    -0.15300
F896        F  0.92552648  0.27493287  0.62055285    -0.13800
F897        F  0.96675085  0.34612456  0.65944416    -0.13800
F898        F  0.88490989  0.37247714  0.56088524    -0.15300
C899        C  0.70655404  0.08242155  0.68700601     0.14800
C900        C  0.70073266  0.10292368  0.66022151     0.01800
C901        C  0.72631199  0.13809722  0.65489497     0.16700
C902        C  0.75725162  0.15273834  0.67658098     0.26200
C903        C  0.76276621  0.13238803  0.70398688    -0.40200
C904        C  0.73748898  0.09698853  0.70854374     0.33200
C905        C  0.66833053  0.08726428  0.63697807     0.01800
F906        F  0.72135747  0.15808980  0.62846597    -0.12500
F907        F  0.74289182  0.07650065  0.73364912    -0.13000
C908        C  0.64436251  0.09763640  0.64354528     0.16700
C909        C  0.61384481  0.08296403  0.62098257     0.26200
C910        C  0.60694337  0.05767391  0.59156230    -0.40100
C911        C  0.63090689  0.04706830  0.58552663     0.33100
C912        C  0.66135917  0.06181235  0.60803856     0.14800
F913        F  0.65037723  0.12164003  0.67216413    -0.12500
F914        F  0.62549040  0.02331431  0.55683511    -0.13000
F915        F  0.59078691  0.09298895  0.62842857    -0.15300
F916        F  0.68453588  0.05187521  0.60095091    -0.13800
F917        F  0.68205180  0.04838950  0.69256708    -0.13800
F918        F  0.78139383  0.18697180  0.67167793    -0.15300
C919        C  0.83072587  0.66702644  0.71062918     0.47600
H920        H  0.83065522  0.66705723  0.67739790    -0.01400
C921        C  0.83050973  0.66645272  0.78883738     0.47600
H922        H  0.83033614  0.66616878  0.82206455    -0.01400
C923        C  0.84940030  0.70352541  0.72931013    -0.15100
C924        C  0.79441444  0.64851472  0.72893627    -0.14900
C925        C  0.84835571  0.64889968  0.72906052    -0.15300
C926        C  0.84942964  0.70316830  0.77059509    -0.15200
C927        C  0.79421836  0.64831135  0.77007725    -0.14800
C928        C  0.84821481  0.64845784  0.77027097    -0.15100
C929        C  0.66218127  0.83794730  0.28986652     0.47600
H930        H  0.66165931  0.83699252  0.32303396    -0.01400
C931        C  0.66320092  0.84020635  0.21170483     0.47600
H932        H  0.66364429  0.84120208  0.17853294    -0.01400
C933        C  0.69877427  0.85733122  0.27219165    -0.15100
C934        C  0.64449871  0.80194471  0.26977941    -0.14900
C935        C  0.64442070  0.85622099  0.27216244    -0.15300
C936        C  0.69930940  0.85819602  0.23094821    -0.15200
C937        C  0.64464645  0.80311854  0.22859574    -0.14800
C938        C  0.64508557  0.85752178  0.23099693    -0.15100
O939        O  0.93155330  0.99335962  0.05479237    -0.76400
C940        C  0.53744885  0.58403547  0.06179023     0.84700
O941        O  0.97017172  0.52601027  0.91791931    -0.77500
O942        O  0.57820266  0.54326463  0.97119087    -0.79000
O943        O  0.50551632  0.94615022  0.05707893    -0.78800
O944        O  0.92987311  0.94307710  0.05536610    -0.77400
Zn945      Zn  0.97256859  0.52588096  0.01999972     1.55700
O946        O  0.55557239  0.99664979  0.05477352    -0.78800
Cd947      Cd  0.97262638  0.95418239  0.02174192     1.59700
Cd948      Cd  0.99509821  0.50157720  0.94027224     1.59600
O949        O  0.95581090  0.91878797  0.97538493    -0.78800
O950        O  0.99596075  0.50269305  0.00046365    -1.89300
Cd951      Cd  0.54497066  0.52781328  0.01932301     1.59900
O952        O  0.96927368  0.95066133  0.91984237    -0.78700
O953        O  0.55599799  0.57151068  0.05186698    -0.77400
C954        C  0.95552429  0.54012751  0.93555735     0.85100
C955        C  0.91741699  0.96163373  0.06563127     0.84800
O956        O  0.50562009  0.56911950  0.05180649    -0.76300
C957        C  0.53732880  0.96524320  0.06668002     0.85600
O958        O  0.95463814  0.54124691  0.97372892    -0.76400
C959        C  0.95602006  0.92124546  0.93730723     0.85700
C960        C  0.57474101  0.54074030  0.93318612     0.86100
O961        O  0.54490773  0.52596303  0.91674677    -0.78900
O962        O  0.56197944  0.51201132  0.55347080    -0.76400
C963        C  0.95709169  0.92353841  0.56417059     0.84700
O964        O  0.52114189  0.97850644  0.41737302    -0.77500
O965        O  0.91503542  0.96229132  0.47554783    -0.79000
O966        O  0.99045105  0.56449914  0.55119358    -0.78800
O967        O  0.56328931  0.56209218  0.55744926    -0.77400
Zn968      Zn  0.52068200  0.98000091  0.51949552     1.55700
O969        O  0.94141650  0.51316705  0.55584882    -0.78800
Cd970      Cd  0.52312541  0.55324873  0.51994238     1.59700
Cd971      Cd  0.99689368  0.50336869  0.44032275     1.59600
O972        O  0.54424752  0.58759463  0.47230593    -0.78800
O973        O  0.99808704  0.50394254  0.50047154    -1.89300
Cd974      Cd  0.95002346  0.97996216  0.52187348     1.59900
O975        O  0.52286947  0.55380772  0.41804796    -0.78700
O976        O  0.93896529  0.93682820  0.55551053    -0.77400
C977        C  0.53610199  0.96465568  0.43499477     0.85100
C978        C  0.57560137  0.54309366  0.56635666     0.84800
O979        O  0.98836893  0.93750356  0.55256891    -0.76300
C980        C  0.95938778  0.54563725  0.56353402     0.85600
O981        O  0.53750688  0.96405931  0.47314101    -0.76400
C982        C  0.54088497  0.58370830  0.43434838     0.85700
C983        C  0.91704294  0.96319660  0.43745362     0.86100
O984        O  0.94617634  0.97781909  0.41955114    -0.78900
C985        C  0.57935469  0.71574823  0.18323011     0.14800
C986        C  0.59942647  0.71156672  0.15427446     0.01800
C987        C  0.63418644  0.73806012  0.14905189     0.16700
C988        C  0.64872912  0.76813483  0.17274455     0.26200
C989        C  0.62880936  0.77196347  0.20226000    -0.40200
C990        C  0.59387392  0.74576310  0.20690314     0.33200
C991        C  0.58407215  0.67936081  0.12991472     0.01800
F992        F  0.65396420  0.73481246  0.12088623    -0.12500
F993        F  0.57371263  0.74939895  0.23414281    -0.13000
C994        C  0.55582427  0.67033981  0.10447923     0.16700
C995        C  0.54056727  0.63934904  0.08241950     0.26200
C996        C  0.55340408  0.61681305  0.08531434    -0.40100
C997        C  0.58193129  0.62612336  0.11065623     0.33100
C998        C  0.59705031  0.65707237  0.13276372     0.14800
F999        F  0.54333245  0.69187425  0.10059424    -0.12500
F1000       F  0.59465615  0.60482114  0.11495892    -0.13000
F1001       F  0.51375718  0.63185728  0.05752226    -0.15300
F1002       F  0.62385832  0.66487570  0.15781117    -0.13800
F1003       F  0.54582360  0.69038231  0.18909305    -0.13800
F1004       F  0.68254374  0.79302246  0.16767948    -0.15300
C1005       C  0.84742080  0.95177537  0.13676892     0.14800
C1006       C  0.82386730  0.91566222  0.13579659     0.01800
C1007       C  0.83147574  0.89464110  0.11213252     0.16700
C1008       C  0.86207115  0.90946098  0.08983824     0.26200
C1009       C  0.88549604  0.94575913  0.09028543    -0.40200
C1010       C  0.87777423  0.96671264  0.11407236     0.33200
C1011       C  0.79143232  0.90010616  0.15945076     0.01800
F1012       F  0.80882502  0.85978430  0.10976849    -0.12500
F1013       F  0.89991641  0.00167127  0.11608062    -0.13000
C1014       C  0.76849255  0.91215589  0.15460231     0.16700
C1015       C  0.73853366  0.89842646  0.17786390     0.26200
C1016       C  0.73099861  0.87244410  0.20628720    -0.40100
C1017       C  0.75335524  0.85968758  0.21049558     0.33100
C1018       C  0.78344355  0.87353903  0.18742244     0.14800
F1019       F  0.77497755  0.93705298  0.12704741    -0.12500
F1020       F  0.74578613  0.83347865  0.23656433    -0.13000
F1021       F  0.71726761  0.91110474  0.17335899    -0.15300
F1022       F  0.80509790  0.86143945  0.19293061    -0.13800
F1023       F  0.84129646  0.97261061  0.16032539    -0.13800
F1024       F  0.86818607  0.88827725  0.06691592    -0.15300
C1025       C  0.62557534  0.92429993  0.19048948     0.14800
C1026       C  0.60007714  0.90464511  0.16160689     0.01800
C1027       C  0.59003844  0.86975632  0.15511245     0.16700
C1028       C  0.60508741  0.85466375  0.17739448     0.26200
C1029       C  0.63022967  0.87416659  0.20661922    -0.40200
C1030       C  0.64074386  0.90925587  0.21263532     0.33200
C1031       C  0.58415829  0.92059777  0.13798733     0.01800
F1032       F  0.56586204  0.85042233  0.12690701    -0.12500
F1033       F  0.66602098  0.92908356  0.23953930    -0.13000
C1034       C  0.60455035  0.94887240  0.11256214     0.16700
C1035       C  0.58947072  0.96366707  0.08972734     0.26200
C1036       C  0.55358533  0.95035620  0.09187508    -0.40100
C1037       C  0.53329583  0.92212660  0.11770303     0.33100
C1038       C  0.54847933  0.90743234  0.14051725     0.14800
F1039       F  0.63899974  0.96156692  0.10907107    -0.12500
F1040       F  0.49880445  0.90905066  0.12146562    -0.13000
F1041       F  0.60989069  0.99029109  0.06457465    -0.15300
F1042       F  0.52840025  0.88057555  0.16556309    -0.13800
F1043       F  0.63540454  0.95793360  0.19759045    -0.13800
F1044       F  0.59452927  0.82073893  0.17109744    -0.15300
C1045       C  0.59277881  0.73009861  0.34435763     0.14800
C1046       C  0.60520449  0.70773929  0.33750854     0.01800
C1047       C  0.63128732  0.71672096  0.30898773     0.16700
C1048       C  0.64442338  0.74760042  0.28710248     0.26200
C1049       C  0.63140102  0.76964277  0.29340335    -0.40200
C1050       C  0.60593114  0.76096060  0.32261318     0.33200
C1051       C  0.59035684  0.67493889  0.36017153     0.01800
F1052       F  0.64371956  0.69546003  0.30214790    -0.12500
F1053       F  0.59315046  0.78193648  0.32929139    -0.13000
C1054       C  0.55746675  0.64688486  0.35002249     0.16700
C1055       C  0.54159612  0.61695431  0.37380801     0.26200
C1056       C  0.55828242  0.61483933  0.40841991    -0.40100
C1057       C  0.59151925  0.64288793  0.41820060     0.33100
C1058       C  0.60756082  0.67260805  0.39397718     0.14800
F1059       F  0.54047152  0.64887170  0.31747155    -0.12500
F1060       F  0.60853351  0.64144301  0.45105310    -0.13000
F1061       F  0.50925608  0.59069844  0.36402437    -0.15300
F1062       F  0.63947945  0.69951807  0.40404735    -0.13800
F1063       F  0.56778991  0.72186590  0.37214257    -0.13800
F1064       F  0.67018626  0.75626768  0.26025322    -0.15300
C1065       C  0.78652593  0.92222921  0.31594567     0.14800
C1066       C  0.79026395  0.90201998  0.34527608     0.01800
C1067       C  0.76321842  0.86763644  0.35184155     0.16700
C1068       C  0.73328617  0.85322207  0.32831374     0.26200
C1069       C  0.72997774  0.87309408  0.29805305    -0.40200
C1070       C  0.75643977  0.90799806  0.29278254     0.33200
C1071       C  0.82248913  0.91688726  0.36888485     0.01800
F1072       F  0.76621628  0.84778940  0.38035956    -0.12500
F1073       F  0.75286902  0.92851278  0.26577543    -0.13000
C1074       C  0.82188060  0.92094069  0.41047696     0.16700
C1075       C  0.85247680  0.93573414  0.43274617     0.26200
C1076       C  0.88447059  0.94688277  0.41370673    -0.40100
C1077       C  0.88476394  0.94226320  0.37187258     0.33100
C1078       C  0.85402234  0.92740946  0.34975608     0.14800
F1079       F  0.79165336  0.91125087  0.42944938    -0.12500
F1080       F  0.91464626  0.95173824  0.35222970    -0.13000
F1081       F  0.85060221  0.93954682  0.47290336    -0.15300
F1082       F  0.85491954  0.92286737  0.30959684    -0.13800
F1083       F  0.81186871  0.95593530  0.31022320    -0.13800
F1084       F  0.70803813  0.81953401  0.33431076    -0.15300
C1085       C  0.56922649  0.93633622  0.34646711     0.14800
C1086       C  0.58339130  0.91884232  0.36592938     0.01800
C1087       C  0.58204060  0.91648249  0.40789676     0.16700
C1088       C  0.56663330  0.93116019  0.43018433     0.26200
C1089       C  0.55231540  0.94886304  0.41094339    -0.40200
C1090       C  0.55388408  0.95124606  0.36864502     0.33200
C1091       C  0.59895825  0.90238606  0.34250702     0.01800
F1092       F  0.59502749  0.89919609  0.42735507    -0.12500
F1093       F  0.54075406  0.96809339  0.34852004    -0.13000
C1094       C  0.63409141  0.91336899  0.34733887     0.16700
C1095       C  0.64864254  0.89766766  0.32522350     0.26200
C1096       C  0.62835184  0.87100270  0.29771427    -0.40100
C1097       C  0.59308323  0.85951312  0.29353912     0.33100
C1098       C  0.57852722  0.87514798  0.31567309     0.14800
F1099       F  0.65447267  0.93991236  0.37271778    -0.12500
F1100       F  0.57269483  0.83292501  0.26823630    -0.13000
F1101       F  0.68286368  0.90944706  0.32944966    -0.15300
F1102       F  0.54431912  0.86337206  0.31138730    -0.13800
F1103       F  0.57067233  0.93936367  0.30587839    -0.13800
F1104       F  0.56548975  0.92753814  0.47068705    -0.15300
C1105       C  0.90236343  0.58044135  0.90662950     0.14800
C1106       C  0.90994438  0.58723333  0.86569543     0.01800
C1107       C  0.93223318  0.57831314  0.84755227     0.16700
C1108       C  0.94688135  0.56285016  0.87002639     0.26200
C1109       C  0.93943701  0.55593068  0.91128771    -0.40200
C1110       C  0.91678470  0.56482628  0.92921962     0.33200
C1111       C  0.89393669  0.60287832  0.84164711     0.01800
F1112       F  0.94019969  0.58508082  0.80805452    -0.12500
F1113       F  0.90799229  0.55792880  0.96850865    -0.13000
C1114       C  0.90350107  0.63766942  0.84772422     0.16700
C1115       C  0.88845891  0.65239948  0.82462048     0.26200
C1116       C  0.86357856  0.63250089  0.79521596    -0.40100
C1117       C  0.85345318  0.59744253  0.78986179     0.33100
C1118       C  0.86877479  0.58286745  0.81263711     0.14800
F1119       F  0.92789386  0.65751200  0.87550274    -0.12500
F1120       F  0.82813654  0.57707713  0.76326073    -0.13000
F1121       F  0.89885454  0.68636086  0.83023197    -0.15300
F1122       F  0.85864409  0.54898729  0.80692531    -0.13800
F1123       F  0.88040331  0.58837402  0.92456863    -0.13800
F1124       F  0.96876629  0.55520844  0.85135682    -0.15300
C1125       C  0.91605921  0.79068482  0.81402102     0.14800
C1126       C  0.89617422  0.79559333  0.84246495     0.01800
C1127       C  0.86140929  0.76962022  0.84827414     0.16700
C1128       C  0.84640989  0.73927195  0.82525644     0.26200
C1129       C  0.86601884  0.73463532  0.79609598    -0.40200
C1130       C  0.90114663  0.76021581  0.79116189     0.33200
C1131       C  0.91171948  0.82771698  0.86642449     0.01800
F1132       F  0.84188030  0.77406119  0.87569254    -0.12500
F1133       F  0.92105916  0.75544012  0.76466440    -0.13000
C1134       C  0.91902365  0.85908987  0.84877189     0.16700
C1135       C  0.93326244  0.88949969  0.87171586     0.26200
C1136       C  0.94062377  0.88899492  0.91281104    -0.40100
C1137       C  0.93323459  0.85721753  0.93021876     0.33100
C1138       C  0.91882049  0.82690369  0.90717272     0.14800
F1139       F  0.91177252  0.86007927  0.80940786    -0.12500
F1140       F  0.94037425  0.85537531  0.96941328    -0.13000
F1141       F  0.93924680  0.91920849  0.85372551    -0.15300
F1142       F  0.91212312  0.79670105  0.92450554    -0.13800
F1143       F  0.94997260  0.81524256  0.80883039    -0.13800
F1144       F  0.81243603  0.71494292  0.83049429    -0.15300
C1145       C  0.70741706  0.62762854  0.81094173     0.14800
C1146       C  0.69916353  0.59959393  0.83659550     0.01800
C1147       C  0.72274465  0.58835064  0.84115163     0.16700
C1148       C  0.75414369  0.60492487  0.82037528     0.26200
C1149       C  0.76222404  0.63270640  0.79444680    -0.40200
C1150       C  0.73881140  0.64419684  0.79017249     0.33200
C1151       C  0.66709170  0.58365298  0.86070671     0.01800
F1152       F  0.71506705  0.56098099  0.86534747    -0.12500
F1153       F  0.74659914  0.67176154  0.76627160    -0.13000
C1154       C  0.63435459  0.56640276  0.84231196     0.16700
C1155       C  0.60424974  0.55225190  0.86560556     0.26200
C1156       C  0.60641718  0.55534429  0.90786639    -0.40100
C1157       C  0.63954127  0.57256413  0.92594258     0.33100
C1158       C  0.66937965  0.58646464  0.90259217     0.14800
F1159       F  0.63155945  0.56292383  0.80178162    -0.12500
F1160       F  0.64341152  0.57635018  0.96636606    -0.13000
F1161       F  0.57311874  0.53549451  0.84663707    -0.15300
F1162       F  0.70077588  0.60347391  0.92096252    -0.13800
F1163       F  0.68542002  0.63946835  0.80682025    -0.13800
F1164       F  0.77614211  0.59308917  0.82445980    -0.15300
C1165       C  0.94063564  0.61248920  0.60646734     0.14800
C1166       C  0.91273912  0.59188890  0.63218335     0.01800
C1167       C  0.90043828  0.55618396  0.63539877     0.16700
C1168       C  0.91549370  0.54119959  0.61307342     0.26200
C1169       C  0.94358531  0.56173569  0.58735053    -0.40200
C1170       C  0.95605702  0.59763923  0.58442242     0.33200
C1171       C  0.89651839  0.60747999  0.65596754     0.01800
F1172       F  0.87420021  0.53586324  0.66091380    -0.12500
F1173       F  0.98261819  0.61831843  0.55946751    -0.13000
C1174       C  0.86073862  0.59419558  0.65290901     0.16700
C1175       C  0.84516702  0.60789442  0.67657444     0.26200
C1176       C  0.86506480  0.63488658  0.70375650    -0.40100
C1177       C  0.90086225  0.64870711  0.70634017     0.33100
C1178       C  0.91650020  0.63507414  0.68266092     0.14800
F1179       F  0.84091111  0.56803301  0.62685020    -0.12500
F1180       F  0.92066806  0.67561772  0.73154763    -0.13000
F1181       F  0.81048211  0.59416885  0.67381352    -0.15300
F1182       F  0.95102635  0.64829403  0.68644866    -0.13800
F1183       F  0.95250254  0.64691384  0.60205644    -0.13800
F1184       F  0.90295653  0.50664137  0.61742515    -0.15300
C1185       C  0.94657613  0.85241599  0.63489073     0.14800
C1186       C  0.91078298  0.82853199  0.63263009     0.01800
C1187       C  0.89033952  0.83581478  0.60758867     0.16700
C1188       C  0.90535923  0.86669442  0.58543155     0.26200
C1189       C  0.94123260  0.89087649  0.58780982    -0.40200
C1190       C  0.96171260  0.88328682  0.61264052     0.33200
C1191       C  0.89466101  0.79628198  0.65689989     0.01800
F1192       F  0.85583519  0.81266471  0.60410792    -0.12500
F1193       F  0.99626336  0.90615614  0.61625823    -0.13000
C1194       C  0.87065530  0.79090118  0.68694984     0.16700
C1195       C  0.85559155  0.76062731  0.71019482     0.26200
C1196       C  0.86470085  0.73544299  0.70417312    -0.40100
C1197       C  0.88820266  0.74053511  0.67353569     0.33100
C1198       C  0.90312569  0.77076033  0.65014581     0.14800
F1199       F  0.86210652  0.81522196  0.69404060    -0.12500
F1200       F  0.89724908  0.71655124  0.66675475    -0.13000
F1201       F  0.83159178  0.75562937  0.73803782    -0.15300
F1202       F  0.92557919  0.77499467  0.62057419    -0.13800
F1203       F  0.96675266  0.84616732  0.65941102    -0.13800
F1204       F  0.88487357  0.87246478  0.56084905    -0.15300
C1205       C  0.70657211  0.58244831  0.68698430     0.14800
C1206       C  0.70078763  0.60295077  0.66016190     0.01800
C1207       C  0.72638884  0.63810987  0.65480702     0.16700
C1208       C  0.75732102  0.65274062  0.67650369     0.26200
C1209       C  0.76280237  0.63239325  0.70395142    -0.40200
C1210       C  0.73749877  0.59700447  0.70853712     0.33200
C1211       C  0.66839968  0.58730407  0.63690521     0.01800
F1212       F  0.72145853  0.65809880  0.62834671    -0.12500
F1213       F  0.74286615  0.57651834  0.73368731    -0.13000
C1214       C  0.64436297  0.59756601  0.64359348     0.16700
C1215       C  0.61384512  0.58289022  0.62103224     0.26200
C1216       C  0.60701706  0.55770883  0.59149687    -0.40100
C1217       C  0.63106040  0.54722820  0.58532175     0.33100
C1218       C  0.66151148  0.56197342  0.60783532     0.14800
F1219       F  0.65031224  0.62146287  0.67232644    -0.12500
F1220       F  0.62571788  0.52359933  0.55649740    -0.13000
F1221       F  0.59071346  0.59279798  0.62859224    -0.15300
F1222       F  0.68476285  0.55215398  0.60063418    -0.13800
F1223       F  0.68204286  0.54842795  0.69256401    -0.13800
F1224       F  0.78148538  0.68696402  0.67157497    -0.15300
loop_ 
_geom_bond_atom_site_label_1 
_geom_bond_atom_site_label_2 
_geom_bond_distance 
_geom_bond_site_symmetry_2 
_ccdc_geom_bond_type 
C1            H2   1.108       .  S
C1            C7   1.534       .  S
C1            C6   1.532       .  S
C1            C5   1.534       .  S
C3            H4   1.108       .  S
C3            C9   1.535       .  S
C3            C8   1.537       .  S
C3           C10   1.535       .  S
C5            C8   1.376       .  D
C5          C278   1.487       .  S
C6            C9   1.371       .  D
C6          C291   1.477       .  S
C7           C10   1.374       .  D
C7          C258   1.476       .  S
C8          C211   1.478       .  S
C9          C231   1.482       .  S
C10         C198   1.485       .  S
C11          H12   1.106       .  S
C11          C17   1.534       .  S
C11          C16   1.537       .  S
C11          C15   1.534       .  S
C13          H14   1.106       .  S
C13          C19   1.533       .  S
C13          C18   1.535       .  S
C13          C20   1.536       .  S
C15          C18   1.375       .  D
C15         C151   1.481       .  S
C16          C19   1.374       .  D
C16         C131   1.479       .  S
C17          C20   1.373       .  D
C17         C178   1.484       .  S
C18          C98   1.481       .  S
C19          C71   1.484       .  S
C20         C111   1.481       .  S
O21          C37   1.276       .  A
O21        Zn333   2.029       .  S
C22          O38   1.276       .  A
C22          O35   1.275       .  A
C22          C78   1.484       .  S
O23          C36   1.276       .  A
O23         Cd30   2.078       .  S
O24          C42   1.274       .  A
O24         Cd33   2.059   1_556  S
O25          C39   1.274       .  A
O25        Cd641   2.071   1_455  S
O26          C37   1.274       .  A
O26         Cd29   2.062       .  S
Zn27         O40   2.023   1_554  S
Zn27        O327   2.029   1_545  S
Zn27        O650   2.028       .  S
Zn27         O32   1.946       .  S
O28          C39   1.274       .  A
O28        Cd339   2.072       .  S
Cd29         O31   2.059   1_554  S
Cd29        O637   2.071       .  S
Cd29        O338   1.997       .  S
Cd30        O340   2.070   1_545  S
Cd30        O655   2.081       .  S
Cd30         O32   2.007   1_556  S
O31          C41   1.274       .  A
O32        Cd335   1.997   1_545  S
O32        Cd645   1.994       .  S
Cd33         O35   2.066       .  S
Cd33        O334   2.072   1_545  S
Cd33        O644   1.994   1_455  S
O34          C41   1.275       .  A
O34        Cd336   2.071       .  S
C36          O40   1.275       .  A
C36         C191   1.492       .  S
C37          C91   1.485       .  S
O38        Zn639   2.028   1_455  S
C39         C118   1.484       .  S
C41         C218   1.485       .  S
C42          O43   1.276       .  A
C42         C238   1.491       .  S
O43        Cd642   2.081   1_455  S
O44          C60   1.274       .  A
O44        Zn356   2.009   1_545  S
C45          O61   1.275       .  A
C45          O58   1.274       .  A
C45         C271   1.484       .  S
O46          C59   1.276       .  A
O46        Cd971   2.083   1_455  S
O47          C65   1.272       .  A
O47         Cd56   2.050       .  S
O48          C62   1.276       .  A
O48        Cd664   2.078       .  S
O49          C60   1.274       .  A
O49         Cd52   2.064       .  S
Zn50         O63   2.014       .  S
Zn50        O350   2.009       .  S
Zn50        O673   2.026   1_455  S
Zn50        O973   1.939   1_455  S
O51          C62   1.275       .  A
O51        Cd362   2.068   1_545  S
Cd52         O54   2.072       .  S
Cd52        O660   2.077   1_455  S
Cd52        O667   2.001   1_455  S
Cd53        O964   2.083   1_545  S
Cd53        O669   2.075       .  S
Cd53        O372   2.076   1_545  S
Cd53         O55   2.006       .  S
O54          C64   1.275       .  A
O55        Zn968   1.939   1_545  S
O55        Cd664   2.001       .  S
O55        Cd362   1.991   1_545  S
Cd56         O58   2.066       .  S
Cd56        O357   2.068       .  S
Cd56        O361   1.992       .  S
O57          C64   1.276       .  A
O57        Cd665   2.075   1_455  S
C59          O63   1.274       .  A
C59         C171   1.494       .  S
C60         C298   1.476       .  S
O61        Zn662   2.026       .  S
C62         C251   1.486       .  S
C64         C138   1.478       .  S
C65          O66   1.276       .  A
C65         C158   1.486       .  S
O66        Cd359   2.076       .  S
C67          C68   1.405       .  A
C67          C72   1.398       .  A
C67          F85   1.358       .  S
C68          C73   1.481       .  S
C68          C69   1.406       .  A
C69          C70   1.400       .  A
C69          F74   1.358       .  S
C70          C71   1.406       .  A
C70          F86   1.358       .  S
C71          C72   1.406       .  A
C72          F75   1.357       .  S
C73          C76   1.405       .  A
C73          C80   1.404       .  A
C76          C77   1.400       .  A
C76          F81   1.358       .  S
C77          C78   1.410       .  A
C77          F83   1.358       .  S
C78          C79   1.410       .  A
C79          C80   1.399       .  A
C79          F82   1.358       .  S
C80          F84   1.358       .  S
C87          C88   1.406       .  A
C87          C92   1.398       .  A
C87         F105   1.358       .  S
C88          C93   1.484       .  S
C88          C89   1.406       .  A
C89          C90   1.399       .  A
C89          F94   1.358       .  S
C90          C91   1.411       .  A
C90         F106   1.358       .  S
C91          C92   1.408       .  A
C92          F95   1.358       .  S
C93          C96   1.408       .  A
C93         C100   1.407       .  A
C96          C97   1.398       .  A
C96         F101   1.358       .  S
C97          C98   1.402       .  A
C97         F103   1.358       .  S
C98          C99   1.405       .  A
C99         C100   1.399       .  A
C99         F102   1.358       .  S
C100        F104   1.358       .  S
C107        C108   1.405       .  A
C107        C112   1.398       .  A
C107        F125   1.358       .  S
C108        C113   1.479       .  S
C108        C109   1.406       .  A
C109        C110   1.398       .  A
C109        F114   1.358       .  S
C110        C111   1.404       .  A
C110        F126   1.358       .  S
C111        C112   1.406       .  A
C112        F115   1.357       .  S
C113        C116   1.404       .  A
C113        C120   1.404       .  A
C116        C117   1.399       .  A
C116        F121   1.358       .  S
C117        C118   1.410       .  A
C117        F123   1.358       .  S
C118        C119   1.410       .  A
C119        C120   1.399       .  A
C119        F122   1.358   1_455  S
C120        F124   1.358       .  S
C127        C128   1.403       .  A
C127        C132   1.396       .  A
C127        F145   1.358       .  S
C128        C133   1.473       .  S
C128        C129   1.403       .  A
C129        C130   1.400       .  A
C129        F134   1.358       .  S
C130        C131   1.408       .  A
C130        F146   1.358       .  S
C131        C132   1.402       .  A
C132        F135   1.358       .  S
C133        C136   1.402       .  A
C133        C140   1.403       .  A
C136        C137   1.398       .  A
C136        F141   1.358       .  S
C137        C138   1.407       .  A
C137        F143   1.358       .  S
C138        C139   1.409       .  A
C139        C140   1.400       .  A
C139        F142   1.358       .  S
C140        F144   1.358       .  S
C147        C148   1.404       .  A
C147        C152   1.396       .  A
C147        F165   1.358       .  S
C148        C153   1.474       .  S
C148        C149   1.404       .  A
C149        C150   1.397       .  A
C149        F154   1.358       .  S
C150        C151   1.406       .  A
C150        F166   1.358       .  S
C151        C152   1.406       .  A
C152        F155   1.357       .  S
C153        C156   1.401       .  A
C153        C160   1.403       .  A
C156        C157   1.396       .  A
C156        F161   1.358       .  S
C157        C158   1.414       .  A
C157        F163   1.358       .  S
C158        C159   1.411       .  A
C159        C160   1.398       .  A
C159        F162   1.358       .  S
C160        F164   1.358       .  S
C167        C168   1.405       .  A
C167        C172   1.402       .  A
C167        F185   1.358       .  S
C168        C173   1.483       .  S
C168        C169   1.402       .  A
C169        C170   1.399       .  A
C169        F174   1.358       .  S
C170        C171   1.414       .  A
C170        F186   1.358       .  S
C171        C172   1.413       .  A
C172        F175   1.358       .  S
C173        C176   1.407       .  A
C173        C180   1.405       .  A
C176        C177   1.401       .  A
C176        F181   1.358       .  S
C177        C178   1.405       .  A
C177        F183   1.358       .  S
C178        C179   1.405       .  A
C179        C180   1.399       .  A
C179        F182   1.357       .  S
C180        F184   1.358       .  S
C187        C188   1.402       .  A
C187        C192   1.400       .  A
C187        F205   1.358       .  S
C188        C193   1.480       .  S
C188        C189   1.403       .  A
C189        C190   1.400       .  A
C189        F194   1.358       .  S
C190        C191   1.413       .  A
C190        F206   1.358       .  S
C191        C192   1.413       .  A
C192        F195   1.358       .  S
C193        C196   1.405       .  A
C193        C200   1.404       .  A
C196        C197   1.401       .  A
C196        F201   1.358       .  S
C197        C198   1.406       .  A
C197        F203   1.358       .  S
C198        C199   1.406       .  A
C199        C200   1.399       .  A
C199        F202   1.357       .  S
C200        F204   1.358       .  S
C207        C208   1.403       .  A
C207        C212   1.397       .  A
C207        F225   1.358       .  S
C208        C213   1.471       .  S
C208        C209   1.403       .  A
C209        C210   1.396       .  A
C209        F214   1.358       .  S
C210        C211   1.404       .  A
C210        F226   1.358       .  S
C211        C212   1.406       .  A
C212        F215   1.358       .  S
C213        C216   1.401       .  A
C213        C220   1.400       .  A
C216        C217   1.398       .  A
C216        F221   1.358       .  S
C217        C218   1.412       .  A
C217        F223   1.358       .  S
C218        C219   1.413       .  A
C219        C220   1.396       .  A
C219        F222   1.358       .  S
C220        F224   1.358       .  S
C227        C228   1.405       .  A
C227        C232   1.399       .  A
C227        F245   1.358       .  S
C228        C233   1.480       .  S
C228        C229   1.406       .  A
C229        C230   1.399       .  A
C229        F234   1.358       .  S
C230        C231   1.403       .  A
C230        F246   1.358       .  S
C231        C232   1.407       .  A
C232        F235   1.358       .  S
C233        C236   1.405       .  A
C233        C240   1.401       .  A
C236        C237   1.402       .  A
C236        F241   1.358       .  S
C237        C238   1.414       .  A
C237        F243   1.358       .  S
C238        C239   1.413       .  A
C239        C240   1.395       .  A
C239        F242   1.358       .  S
C240        F244   1.358       .  S
C247        C248   1.405       .  A
C247        C252   1.400       .  A
C247        F265   1.358       .  S
C248        C253   1.482       .  S
C248        C249   1.404       .  A
C249        C250   1.397       .  A
C249        F254   1.358       .  S
C250        C251   1.410       .  A
C250        F266   1.358       .  S
C251        C252   1.411       .  A
C252        F255   1.358       .  S
C253        C256   1.408       .  A
C253        C260   1.407       .  A
C256        C257   1.398       .  A
C256        F261   1.358       .  S
C257        C258   1.402       .  A
C257        F263   1.358       .  S
C258        C259   1.403       .  A
C259        C260   1.398       .  A
C259        F262   1.358       .  S
C260        F264   1.358       .  S
C267        C268   1.405       .  A
C267        C272   1.400       .  A
C267        F285   1.358       .  S
C268        C273   1.481       .  S
C268        C269   1.404       .  A
C269        C270   1.399       .  A
C269        F274   1.358       .  S
C270        C271   1.410       .  A
C270        F286   1.358       .  S
C271        C272   1.409       .  A
C272        F275   1.358       .  S
C273        C276   1.405       .  A
C273        C280   1.405       .  A
C276        C277   1.399       .  A
C276        F281   1.358       .  S
C277        C278   1.407       .  A
C277        F283   1.357       .  S
C278        C279   1.406       .  A
C279        C280   1.400       .  A
C279        F282   1.358       .  S
C280        F284   1.358       .  S
C287        C288   1.403       .  A
C287        C292   1.395       .  A
C287        F305   1.358       .  S
C288        C293   1.472       .  S
C288        C289   1.404       .  A
C289        C290   1.397       .  A
C289        F294   1.358       .  S
C290        C291   1.404       .  A
C290        F306   1.358       .  S
C291        C292   1.405       .  A
C292        F295   1.357       .  S
C293        C296   1.403       .  A
C293        C300   1.402       .  A
C296        C297   1.398       .  A
C296        F301   1.358       .  S
C297        C298   1.408       .  A
C297        F303   1.358       .  S
C298        C299   1.408       .  A
C299        C300   1.395       .  A
C299        F302   1.358       .  S
C300        F304   1.358       .  S
C307        H308   1.108       .  S
C307        C313   1.534       .  S
C307        C312   1.532       .  S
C307        C311   1.534       .  S
C309        H310   1.108       .  S
C309        C315   1.535       .  S
C309        C314   1.537       .  S
C309        C316   1.535       .  S
C311        C314   1.376       .  D
C311        C584   1.487       .  S
C312        C315   1.371       .  D
C312        C597   1.477       .  S
C313        C316   1.374       .  D
C313        C564   1.476       .  S
C314        C517   1.477       .  S
C315        C537   1.482       .  S
C316        C504   1.485       .  S
C317        H318   1.106       .  S
C317        C323   1.534       .  S
C317        C322   1.537       .  S
C317        C321   1.534       .  S
C319        H320   1.106       .  S
C319        C325   1.533       .  S
C319        C324   1.535       .  S
C319        C326   1.536       .  S
C321        C324   1.375       .  D
C321        C457   1.481       .  S
C322        C325   1.374       .  D
C322        C437   1.480       .  S
C323        C326   1.373       .  D
C323        C484   1.484       .  S
C324        C404   1.481       .  S
C325        C377   1.484       .  S
C326        C417   1.481       .  S
O327        C343   1.276       .  A
C328        O344   1.276       .  A
C328        O341   1.275       .  A
C328        C384   1.484       .  S
O329        C342   1.276       .  A
O329       Cd336   2.078       .  S
O330        C348   1.274       .  A
O330       Cd339   2.059   1_556  S
O331        C345   1.275       .  A
O331       Cd947   2.071   1_455  S
O332        C343   1.274       .  A
O332       Cd335   2.062       .  S
Zn333       O956   2.028       .  S
Zn333       O346   2.023   1_554  S
Zn333       O338   1.945       .  S
O334        C345   1.274       .  A
Cd335       O943   2.071       .  S
Cd335       O337   2.059   1_554  S
Cd336       O961   2.081       .  S
Cd336       O338   2.007   1_556  S
O337        C347   1.274       .  A
O338       Cd951   1.994       .  S
Cd339       O341   2.066       .  S
Cd339       O950   1.994   1_455  S
O340        C347   1.275       .  A
C342        O346   1.275       .  A
C342        C497   1.492       .  S
C343        C397   1.485       .  S
O344       Zn945   2.027   1_455  S
C345        C424   1.484       .  S
C347        C524   1.485       .  S
C348        O349   1.276       .  A
C348        C544   1.491       .  S
O349       Cd948   2.081   1_455  S
O350        C366   1.274       .  A
C351        O367   1.275       .  A
C351        O364   1.274       .  A
C351        C577   1.484       .  S
O352        C365   1.276       .  A
O352       Cd665   2.083   1_465  S
O353        C371   1.272       .  A
O353       Cd362   2.050       .  S
O354        C368   1.276       .  A
O354       Cd970   2.078       .  S
O355        C366   1.274       .  A
O355       Cd358   2.064       .  S
Zn356       O979   2.026   1_455  S
Zn356       O369   2.014       .  S
Zn356       O667   1.939   1_465  S
O357        C368   1.275       .  A
Cd358       O966   2.078   1_455  S
Cd358       O360   2.072       .  S
Cd358       O973   2.001   1_455  S
Cd359       O658   2.083       .  S
Cd359       O975   2.075       .  S
Cd359       O361   2.005       .  S
O360        C370   1.275       .  A
O361       Zn662   1.939       .  S
O361       Cd970   2.001       .  S
Cd362       O364   2.065       .  S
O363        C370   1.276       .  A
O363       Cd971   2.075   1_455  S
C365        O369   1.274       .  A
C365        C477   1.494       .  S
C366        C604   1.476       .  S
O367       Zn968   2.026       .  S
C368        C557   1.486       .  S
C370        C444   1.478       .  S
C371        O372   1.276       .  A
C371        C464   1.486       .  S
C373        C374   1.405       .  A
C373        C378   1.398       .  A
C373        F391   1.358       .  S
C374        C379   1.481       .  S
C374        C375   1.406       .  A
C375        C376   1.400       .  A
C375        F380   1.358       .  S
C376        C377   1.406       .  A
C376        F392   1.358       .  S
C377        C378   1.406       .  A
C378        F381   1.357       .  S
C379        C382   1.404       .  A
C379        C386   1.404       .  A
C382        C383   1.400       .  A
C382        F387   1.358       .  S
C383        C384   1.410       .  A
C383        F389   1.358       .  S
C384        C385   1.410       .  A
C385        C386   1.399       .  A
C385        F388   1.358       .  S
C386        F390   1.358       .  S
C393        C394   1.406       .  A
C393        C398   1.398       .  A
C393        F411   1.358       .  S
C394        C399   1.484       .  S
C394        C395   1.406       .  A
C395        C396   1.399       .  A
C395        F400   1.358       .  S
C396        C397   1.411       .  A
C396        F412   1.358       .  S
C397        C398   1.408       .  A
C398        F401   1.358   1_565  S
C399        C402   1.408       .  A
C399        C406   1.407       .  A
C402        C403   1.398       .  A
C402        F407   1.358       .  S
C403        C404   1.402       .  A
C403        F409   1.358       .  S
C404        C405   1.405       .  A
C405        C406   1.399       .  A
C405        F408   1.358       .  S
C406        F410   1.358       .  S
C413        C414   1.405       .  A
C413        C418   1.398       .  A
C413        F431   1.358       .  S
C414        C419   1.479       .  S
C414        C415   1.406       .  A
C415        C416   1.398       .  A
C415        F420   1.358       .  S
C416        C417   1.404       .  A
C416        F432   1.358       .  S
C417        C418   1.406       .  A
C418        F421   1.357       .  S
C419        C422   1.404       .  A
C419        C426   1.404       .  A
C422        C423   1.399       .  A
C422        F427   1.358       .  S
C423        C424   1.410       .  A
C423        F429   1.358       .  S
C424        C425   1.410       .  A
C425        C426   1.399       .  A
C425        F428   1.358   1_455  S
C426        F430   1.358       .  S
C433        C434   1.403       .  A
C433        C438   1.396       .  A
C433        F451   1.358       .  S
C434        C439   1.473       .  S
C434        C435   1.403       .  A
C435        C436   1.400       .  A
C435        F440   1.358       .  S
C436        C437   1.408       .  A
C436        F452   1.358       .  S
C437        C438   1.402       .  A
C438        F441   1.358       .  S
C439        C442   1.402       .  A
C439        C446   1.403       .  A
C442        C443   1.398       .  A
C442        F447   1.358       .  S
C443        C444   1.407       .  A
C443        F449   1.358       .  S
C444        C445   1.409       .  A
C445        C446   1.400       .  A
C445        F448   1.358       .  S
C446        F450   1.358       .  S
C453        C454   1.403       .  A
C453        C458   1.396       .  A
C453        F471   1.358       .  S
C454        C459   1.474       .  S
C454        C455   1.404       .  A
C455        C456   1.397       .  A
C455        F460   1.358       .  S
C456        C457   1.406       .  A
C456        F472   1.358       .  S
C457        C458   1.406       .  A
C458        F461   1.357       .  S
C459        C462   1.401       .  A
C459        C466   1.403       .  A
C462        C463   1.396       .  A
C462        F467   1.358       .  S
C463        C464   1.414       .  A
C463        F469   1.358       .  S
C464        C465   1.411       .  A
C465        C466   1.398       .  A
C465        F468   1.358       .  S
C466        F470   1.358       .  S
C473        C474   1.405       .  A
C473        C478   1.402       .  A
C473        F491   1.358       .  S
C474        C479   1.483       .  S
C474        C475   1.402       .  A
C475        C476   1.398       .  A
C475        F480   1.358       .  S
C476        C477   1.414       .  A
C476        F492   1.358       .  S
C477        C478   1.413       .  A
C478        F481   1.358       .  S
C479        C482   1.407       .  A
C479        C486   1.405       .  A
C482        C483   1.401       .  A
C482        F487   1.358       .  S
C483        C484   1.405       .  A
C483        F489   1.358       .  S
C484        C485   1.405       .  A
C485        C486   1.399       .  A
C485        F488   1.357       .  S
C486        F490   1.358       .  S
C493        C494   1.402       .  A
C493        C498   1.400       .  A
C493        F511   1.358       .  S
C494        C499   1.480       .  S
C494        C495   1.403       .  A
C495        C496   1.400       .  A
C495        F500   1.358       .  S
C496        C497   1.412       .  A
C496        F512   1.358       .  S
C497        C498   1.413       .  A
C498        F501   1.358       .  S
C499        C502   1.405       .  A
C499        C506   1.404       .  A
C502        C503   1.401       .  A
C502        F507   1.358       .  S
C503        C504   1.406       .  A
C503        F509   1.358       .  S
C504        C505   1.406       .  A
C505        C506   1.399       .  A
C505        F508   1.357       .  S
C506        F510   1.358       .  S
C513        C514   1.403       .  A
C513        C518   1.397       .  A
C513        F531   1.358       .  S
C514        C519   1.471       .  S
C514        C515   1.403       .  A
C515        C516   1.396       .  A
C515        F520   1.358       .  S
C516        C517   1.404       .  A
C516        F532   1.358       .  S
C517        C518   1.406       .  A
C518        F521   1.358       .  S
C519        C522   1.401       .  A
C519        C526   1.400       .  A
C522        C523   1.398       .  A
C522        F527   1.358       .  S
C523        C524   1.412       .  A
C523        F529   1.358       .  S
C524        C525   1.413       .  A
C525        C526   1.396       .  A
C525        F528   1.358       .  S
C526        F530   1.358       .  S
C533        C534   1.405       .  A
C533        C538   1.399       .  A
C533        F551   1.358       .  S
C534        C539   1.480       .  S
C534        C535   1.406       .  A
C535        C536   1.399       .  A
C535        F540   1.358       .  S
C536        C537   1.403       .  A
C536        F552   1.358       .  S
C537        C538   1.407       .  A
C538        F541   1.358       .  S
C539        C542   1.405       .  A
C539        C546   1.401       .  A
C542        C543   1.402       .  A
C542        F547   1.358       .  S
C543        C544   1.414       .  A
C543        F549   1.358       .  S
C544        C545   1.413       .  A
C545        C546   1.395       .  A
C545        F548   1.358       .  S
C546        F550   1.358       .  S
C553        C554   1.405       .  A
C553        C558   1.400       .  A
C553        F571   1.358       .  S
C554        C559   1.483       .  S
C554        C555   1.404       .  A
C555        C556   1.397       .  A
C555        F560   1.358       .  S
C556        C557   1.410       .  A
C556        F572   1.358       .  S
C557        C558   1.411       .  A
C558        F561   1.358       .  S
C559        C562   1.408       .  A
C559        C566   1.407       .  A
C562        C563   1.398       .  A
C562        F567   1.358       .  S
C563        C564   1.402       .  A
C563        F569   1.358       .  S
C564        C565   1.403       .  A
C565        C566   1.398       .  A
C565        F568   1.358       .  S
C566        F570   1.358       .  S
C573        C574   1.405       .  A
C573        C578   1.400       .  A
C573        F591   1.358       .  S
C574        C579   1.481       .  S
C574        C575   1.404       .  A
C575        C576   1.399       .  A
C575        F580   1.358       .  S
C576        C577   1.410       .  A
C576        F592   1.358       .  S
C577        C578   1.409       .  A
C578        F581   1.358       .  S
C579        C582   1.405       .  A
C579        C586   1.405       .  A
C582        C583   1.399       .  A
C582        F587   1.358       .  S
C583        C584   1.407       .  A
C583        F589   1.357       .  S
C584        C585   1.406       .  A
C585        C586   1.400       .  A
C585        F588   1.358       .  S
C586        F590   1.358       .  S
C593        C594   1.403       .  A
C593        C598   1.395       .  A
C593        F611   1.358       .  S
C594        C599   1.472       .  S
C594        C595   1.404       .  A
C595        C596   1.397       .  A
C595        F600   1.358       .  S
C596        C597   1.404       .  A
C596        F612   1.358       .  S
C597        C598   1.405       .  A
C598        F601   1.357       .  S
C599        C602   1.403       .  A
C599        C606   1.402       .  A
C602        C603   1.398       .  A
C602        F607   1.358       .  S
C603        C604   1.408       .  A
C603        F609   1.358       .  S
C604        C605   1.408       .  A
C605        C606   1.395       .  A
C605        F608   1.358       .  S
C606        F610   1.358       .  S
C613        H614   1.108       .  S
C613        C619   1.534       .  S
C613        C618   1.532       .  S
C613        C617   1.534       .  S
C615        H616   1.108       .  S
C615        C621   1.535       .  S
C615        C620   1.537       .  S
C615        C622   1.535       .  S
C617        C620   1.376       .  D
C617        C890   1.487       .  S
C618        C621   1.371       .  D
C618        C903   1.477       .  S
C619        C622   1.374       .  D
C619        C870   1.476       .  S
C620        C823   1.478       .  S
C621        C843   1.482       .  S
C622        C810   1.485       .  S
C623        H624   1.106       .  S
C623        C629   1.534       .  S
C623        C628   1.537       .  S
C623        C627   1.534       .  S
C625        H626   1.106       .  S
C625        C631   1.533       .  S
C625        C630   1.535       .  S
C625        C632   1.536       .  S
C627        C630   1.375       .  D
C627        C763   1.481       .  S
C628        C631   1.374       .  D
C628        C743   1.479       .  S
C629        C632   1.373       .  D
C629        C790   1.484       .  S
C630        C710   1.481       .  S
C631        C683   1.484       .  S
C632        C723   1.481       .  S
O633        C649   1.276       .  A
O633       Zn945   2.029       .  S
C634        O650   1.276       .  A
C634        O647   1.275       .  A
C634        C690   1.484       .  S
O635        C648   1.276       .  A
O635       Cd642   2.078       .  S
O636        C654   1.274       .  A
O636       Cd645   2.060   1_556  S
O637        C651   1.274       .  A
O638        C649   1.274       .  A
O638       Cd641   2.062       .  S
Zn639       O939   2.029   1_545  S
Zn639       O652   2.023   1_554  S
Zn639       O644   1.945       .  S
O640        C651   1.274       .  A
O640       Cd951   2.072       .  S
Cd641       O643   2.059   1_554  S
Cd641       O950   1.997       .  S
Cd642       O952   2.070   1_545  S
Cd642       O644   2.007   1_556  S
O643        C653   1.274       .  A
O644       Cd947   1.997   1_545  S
Cd645       O946   2.072   1_545  S
Cd645       O647   2.066       .  S
O646        C653   1.275       .  A
O646       Cd948   2.071       .  S
C648        O652   1.275       .  A
C648        C803   1.492       .  S
C649        C703   1.485       .  S
C651        C730   1.485       .  S
C653        C830   1.485       .  S
C654        O655   1.276       .  A
C654        C850   1.491       .  S
O656        C672   1.274       .  A
O656       Zn968   2.009   1_545  S
C657        O673   1.275       .  A
C657        O670   1.274       .  A
C657        C883   1.484       .  S
O658        C671   1.276       .  A
O659        C677   1.272       .  A
O659       Cd668   2.050       .  S
O660        C674   1.276       .  A
O661        C672   1.274       .  A
O661       Cd664   2.064       .  S
Zn662       O962   2.009       .  S
Zn662       O675   2.014       .  S
O663        C674   1.275       .  A
O663       Cd974   2.068   1_545  S
Cd664       O666   2.072       .  S
Cd665       O984   2.076   1_545  S
Cd665       O667   2.005       .  S
O666        C676   1.275       .  A
O667       Cd974   1.991   1_545  S
Cd668       O969   2.068       .  S
Cd668       O670   2.065       .  S
Cd668       O973   1.992       .  S
O669        C676   1.276       .  A
C671        O675   1.274       .  A
C671        C783   1.494       .  S
C672        C910   1.476       .  S
C674        C863   1.486       .  S
C676        C750   1.478       .  S
C677        O678   1.276       .  A
C677        C770   1.486       .  S
O678       Cd971   2.076       .  S
C679        C680   1.405       .  A
C679        C684   1.398       .  A
C679        F697   1.358       .  S
C680        C685   1.481       .  S
C680        C681   1.406       .  A
C681        C682   1.400       .  A
C681        F686   1.358       .  S
C682        C683   1.406       .  A
C682        F698   1.358       .  S
C683        C684   1.406       .  A
C684        F687   1.357       .  S
C685        C688   1.405       .  A
C685        C692   1.404       .  A
C688        C689   1.400       .  A
C688        F693   1.358       .  S
C689        C690   1.410       .  A
C689        F695   1.358       .  S
C690        C691   1.410       .  A
C691        C692   1.399       .  A
C691        F694   1.358       .  S
C692        F696   1.358       .  S
C699        C700   1.406       .  A
C699        C704   1.398       .  A
C699        F717   1.358       .  S
C700        C705   1.484       .  S
C700        C701   1.406       .  A
C701        C702   1.399       .  A
C701        F706   1.358       .  S
C702        C703   1.411       .  A
C702        F718   1.358       .  S
C703        C704   1.408       .  A
C704        F707   1.358       .  S
C705        C708   1.408       .  A
C705        C712   1.407       .  A
C708        C709   1.398       .  A
C708        F713   1.358       .  S
C709        C710   1.402       .  A
C709        F715   1.358       .  S
C710        C711   1.405       .  A
C711        C712   1.398       .  A
C711        F714   1.358       .  S
C712        F716   1.358       .  S
C719        C720   1.405       .  A
C719        C724   1.398       .  A
C719        F737   1.358       .  S
C720        C725   1.479       .  S
C720        C721   1.406       .  A
C721        C722   1.398       .  A
C721        F726   1.358       .  S
C722        C723   1.404       .  A
C722        F738   1.358       .  S
C723        C724   1.406       .  A
C724        F727   1.357       .  S
C725        C728   1.404       .  A
C725        C732   1.404       .  A
C728        C729   1.399       .  A
C728        F733   1.358       .  S
C729        C730   1.410       .  A
C729        F735   1.358       .  S
C730        C731   1.410       .  A
C731        C732   1.399       .  A
C731        F734   1.358       .  S
C732        F736   1.358       .  S
C739        C740   1.403       .  A
C739        C744   1.396       .  A
C739        F757   1.358       .  S
C740        C745   1.473       .  S
C740        C741   1.403       .  A
C741        C742   1.400       .  A
C741        F746   1.358       .  S
C742        C743   1.408       .  A
C742        F758   1.358       .  S
C743        C744   1.402       .  A
C744        F747   1.358       .  S
C745        C748   1.402       .  A
C745        C752   1.403       .  A
C748        C749   1.398       .  A
C748        F753   1.358       .  S
C749        C750   1.407       .  A
C749        F755   1.358       .  S
C750        C751   1.409       .  A
C751        C752   1.400       .  A
C751        F754   1.358       .  S
C752        F756   1.358       .  S
C759        C760   1.404       .  A
C759        C764   1.396       .  A
C759        F777   1.358       .  S
C760        C765   1.474       .  S
C760        C761   1.404       .  A
C761        C762   1.397       .  A
C761        F766   1.358       .  S
C762        C763   1.406       .  A
C762        F778   1.358       .  S
C763        C764   1.406       .  A
C764        F767   1.357       .  S
C765        C768   1.401       .  A
C765        C772   1.403       .  A
C768        C769   1.396       .  A
C768        F773   1.358       .  S
C769        C770   1.414       .  A
C769        F775   1.358       .  S
C770        C771   1.411       .  A
C771        C772   1.398       .  A
C771        F774   1.358       .  S
C772        F776   1.358       .  S
C779        C780   1.405       .  A
C779        C784   1.402       .  A
C779        F797   1.358       .  S
C780        C785   1.483       .  S
C780        C781   1.402       .  A
C781        C782   1.398       .  A
C781        F786   1.358       .  S
C782        C783   1.414       .  A
C782        F798   1.358       .  S
C783        C784   1.413       .  A
C784        F787   1.358       .  S
C785        C788   1.407       .  A
C785        C792   1.405       .  A
C788        C789   1.401       .  A
C788        F793   1.358       .  S
C789        C790   1.405       .  A
C789        F795   1.358       .  S
C790        C791   1.405       .  A
C791        C792   1.399       .  A
C791        F794   1.357       .  S
C792        F796   1.358       .  S
C799        C800   1.402       .  A
C799        C804   1.400       .  A
C799        F817   1.358       .  S
C800        C805   1.480       .  S
C800        C801   1.403       .  A
C801        C802   1.400       .  A
C801        F806   1.358       .  S
C802        C803   1.412       .  A
C802        F818   1.358       .  S
C803        C804   1.413       .  A
C804        F807   1.358       .  S
C805        C808   1.405       .  A
C805        C812   1.404       .  A
C808        C809   1.401       .  A
C808        F813   1.358       .  S
C809        C810   1.406       .  A
C809        F815   1.358       .  S
C810        C811   1.406       .  A
C811        C812   1.399       .  A
C811        F814   1.357       .  S
C812        F816   1.358       .  S
C819        C820   1.403       .  A
C819        C824   1.397       .  A
C819        F837   1.358       .  S
C820        C825   1.471       .  S
C820        C821   1.403       .  A
C821        C822   1.396       .  A
C821        F826   1.358       .  S
C822        C823   1.404       .  A
C822        F838   1.358       .  S
C823        C824   1.406       .  A
C824        F827   1.358       .  S
C825        C828   1.401       .  A
C825        C832   1.400       .  A
C828        C829   1.398       .  A
C828        F833   1.358       .  S
C829        C830   1.412       .  A
C829        F835   1.358       .  S
C830        C831   1.413       .  A
C831        C832   1.396       .  A
C831        F834   1.358       .  S
C832        F836   1.358       .  S
C839        C840   1.405       .  A
C839        C844   1.399       .  A
C839        F857   1.358       .  S
C840        C845   1.479       .  S
C840        C841   1.406       .  A
C841        C842   1.399       .  A
C841        F846   1.358       .  S
C842        C843   1.403       .  A
C842        F858   1.358       .  S
C843        C844   1.407       .  A
C844        F847   1.358       .  S
C845        C848   1.405       .  A
C845        C852   1.401       .  A
C848        C849   1.402       .  A
C848        F853   1.358       .  S
C849        C850   1.414       .  A
C849        F855   1.358       .  S
C850        C851   1.413       .  A
C851        C852   1.395       .  A
C851        F854   1.358       .  S
C852        F856   1.358       .  S
C859        C860   1.405       .  A
C859        C864   1.400       .  A
C859        F877   1.358       .  S
C860        C865   1.482       .  S
C860        C861   1.404       .  A
C861        C862   1.397       .  A
C861        F866   1.358       .  S
C862        C863   1.410       .  A
C862        F878   1.358       .  S
C863        C864   1.411       .  A
C864        F867   1.358       .  S
C865        C868   1.408       .  A
C865        C872   1.407       .  A
C868        C869   1.398       .  A
C868        F873   1.358       .  S
C869        C870   1.402       .  A
C869        F875   1.358       .  S
C870        C871   1.403       .  A
C871        C872   1.398       .  A
C871        F874   1.358       .  S
C872        F876   1.358       .  S
C879        C880   1.405       .  A
C879        C884   1.400       .  A
C879        F897   1.358       .  S
C880        C885   1.481       .  S
C880        C881   1.404       .  A
C881        C882   1.399       .  A
C881        F886   1.358       .  S
C882        C883   1.410       .  A
C882        F898   1.358       .  S
C883        C884   1.409       .  A
C884        F887   1.358       .  S
C885        C888   1.405       .  A
C885        C892   1.405       .  A
C888        C889   1.399       .  A
C888        F893   1.358       .  S
C889        C890   1.407       .  A
C889        F895   1.357       .  S
C890        C891   1.406       .  A
C891        C892   1.400       .  A
C891        F894   1.358       .  S
C892        F896   1.358       .  S
C899        C900   1.403       .  A
C899        C904   1.395       .  A
C899        F917   1.358       .  S
C900        C905   1.472       .  S
C900        C901   1.404       .  A
C901        C902   1.397       .  A
C901        F906   1.358       .  S
C902        C903   1.404       .  A
C902        F918   1.358       .  S
C903        C904   1.405       .  A
C904        F907   1.357       .  S
C905        C908   1.403       .  A
C905        C912   1.402       .  A
C908        C909   1.398       .  A
C908        F913   1.358       .  S
C909        C910   1.408       .  A
C909        F915   1.358       .  S
C910        C911   1.408       .  A
C911        C912   1.395       .  A
C911        F914   1.358       .  S
C912        F916   1.358       .  S
C919        H920   1.108       .  S
C919        C925   1.534       .  S
C919        C924   1.532       .  S
C919        C923   1.534       .  S
C921        H922   1.108       .  S
C921        C927   1.535       .  S
C921        C926   1.537       .  S
C921        C928   1.535       .  S
C923        C926   1.376       .  D
C923       C1196   1.487       .  S
C924        C927   1.371       .  D
C924       C1209   1.477       .  S
C925        C928   1.374       .  D
C925       C1176   1.476       .  S
C926       C1129   1.478       .  S
C927       C1149   1.482       .  S
C928       C1116   1.485       .  S
C929        H930   1.106       .  S
C929        C935   1.534       .  S
C929        C934   1.537       .  S
C929        C933   1.534       .  S
C931        H932   1.106       .  S
C931        C937   1.533       .  S
C931        C936   1.535       .  S
C931        C938   1.536       .  S
C933        C936   1.375       .  D
C933       C1069   1.481       .  S
C934        C937   1.374       .  D
C934       C1049   1.480       .  S
C935        C938   1.373       .  D
C935       C1096   1.484       .  S
C936       C1016   1.481       .  S
C937        C989   1.484       .  S
C938       C1029   1.481       .  S
O939        C955   1.276       .  A
C940        O956   1.276       .  A
C940        O953   1.275       .  A
C940        C996   1.484       .  S
O941        C954   1.276       .  A
O941       Cd948   2.078       .  S
O942        C960   1.274       .  A
O942       Cd951   2.060   1_556  S
O943        C957   1.275       .  A
O944        C955   1.274       .  A
O944       Cd947   2.062       .  S
Zn945       O958   2.023   1_554  S
Zn945       O950   1.945       .  S
O946        C957   1.274       .  A
Cd947       O949   2.059   1_554  S
Cd948       O950   2.007   1_556  S
O949        C959   1.274       .  A
Cd951       O953   2.066       .  S
O952        C959   1.275       .  A
C954        O958   1.275       .  A
C954       C1109   1.492       .  S
C955       C1009   1.485       .  S
C957       C1036   1.485       .  S
C959       C1136   1.485       .  S
C960        O961   1.276       .  A
C960       C1156   1.491       .  S
O962        C978   1.274       .  A
C963        O979   1.275       .  A
C963        O976   1.274       .  A
C963       C1189   1.484       .  S
O964        C977   1.276       .  A
O965        C983   1.272       .  A
O965       Cd974   2.050       .  S
O966        C980   1.276       .  A
O967        C978   1.274       .  A
O967       Cd970   2.064       .  S
Zn968       O981   2.014       .  S
O969        C980   1.275       .  A
Cd970       O972   2.072       .  S
Cd971       O973   2.005       .  S
O972        C982   1.275       .  A
Cd974       O976   2.065       .  S
O975        C982   1.276       .  A
C977        O981   1.274       .  A
C977       C1089   1.494       .  S
C978       C1216   1.476       .  S
C980       C1169   1.486       .  S
C982       C1056   1.478       .  S
C983        O984   1.276       .  A
C983       C1076   1.486       .  S
C985        C986   1.405       .  A
C985        C990   1.398       .  A
C985       F1003   1.358       .  S
C986        C991   1.481       .  S
C986        C987   1.406       .  A
C987        C988   1.400       .  A
C987        F992   1.358       .  S
C988        C989   1.406       .  A
C988       F1004   1.358       .  S
C989        C990   1.406       .  A
C990        F993   1.357       .  S
C991        C994   1.404       .  A
C991        C998   1.404       .  A
C994        C995   1.400       .  A
C994        F999   1.358       .  S
C995        C996   1.410       .  A
C995       F1001   1.358       .  S
C996        C997   1.410       .  A
C997        C998   1.399       .  A
C997       F1000   1.358       .  S
C998       F1002   1.358       .  S
C1005      C1006   1.406       .  A
C1005      C1010   1.398       .  A
C1005      F1023   1.358       .  S
C1006      C1011   1.484       .  S
C1006      C1007   1.406       .  A
C1007      C1008   1.399       .  A
C1007      F1012   1.358       .  S
C1008      C1009   1.411       .  A
C1008      F1024   1.358       .  S
C1009      C1010   1.408       .  A
C1010      F1013   1.358   1_565  S
C1011      C1014   1.408       .  A
C1011      C1018   1.407       .  A
C1014      C1015   1.398       .  A
C1014      F1019   1.358       .  S
C1015      C1016   1.402       .  A
C1015      F1021   1.358       .  S
C1016      C1017   1.405       .  A
C1017      C1018   1.399       .  A
C1017      F1020   1.358       .  S
C1018      F1022   1.358       .  S
C1025      C1026   1.405       .  A
C1025      C1030   1.398       .  A
C1025      F1043   1.358       .  S
C1026      C1031   1.479       .  S
C1026      C1027   1.406       .  A
C1027      C1028   1.398       .  A
C1027      F1032   1.358       .  S
C1028      C1029   1.404       .  A
C1028      F1044   1.358       .  S
C1029      C1030   1.406       .  A
C1030      F1033   1.357       .  S
C1031      C1034   1.404       .  A
C1031      C1038   1.404       .  A
C1034      C1035   1.399       .  A
C1034      F1039   1.358       .  S
C1035      C1036   1.410       .  A
C1035      F1041   1.358       .  S
C1036      C1037   1.410       .  A
C1037      C1038   1.399       .  A
C1037      F1040   1.358       .  S
C1038      F1042   1.358       .  S
C1045      C1046   1.403       .  A
C1045      C1050   1.396       .  A
C1045      F1063   1.358       .  S
C1046      C1051   1.473       .  S
C1046      C1047   1.403       .  A
C1047      C1048   1.399       .  A
C1047      F1052   1.358       .  S
C1048      C1049   1.408       .  A
C1048      F1064   1.358       .  S
C1049      C1050   1.402       .  A
C1050      F1053   1.358       .  S
C1051      C1054   1.402       .  A
C1051      C1058   1.403       .  A
C1054      C1055   1.398       .  A
C1054      F1059   1.358       .  S
C1055      C1056   1.407       .  A
C1055      F1061   1.358       .  S
C1056      C1057   1.409       .  A
C1057      C1058   1.400       .  A
C1057      F1060   1.358       .  S
C1058      F1062   1.358       .  S
C1065      C1066   1.403       .  A
C1065      C1070   1.396       .  A
C1065      F1083   1.358       .  S
C1066      C1071   1.474       .  S
C1066      C1067   1.404       .  A
C1067      C1068   1.397       .  A
C1067      F1072   1.358       .  S
C1068      C1069   1.406       .  A
C1068      F1084   1.358       .  S
C1069      C1070   1.406       .  A
C1070      F1073   1.357       .  S
C1071      C1074   1.401       .  A
C1071      C1078   1.403       .  A
C1074      C1075   1.396       .  A
C1074      F1079   1.358       .  S
C1075      C1076   1.414       .  A
C1075      F1081   1.358       .  S
C1076      C1077   1.411       .  A
C1077      C1078   1.398       .  A
C1077      F1080   1.358       .  S
C1078      F1082   1.358       .  S
C1085      C1086   1.405       .  A
C1085      C1090   1.402       .  A
C1085      F1103   1.358       .  S
C1086      C1091   1.483       .  S
C1086      C1087   1.402       .  A
C1087      C1088   1.398       .  A
C1087      F1092   1.358       .  S
C1088      C1089   1.414       .  A
C1088      F1104   1.358       .  S
C1089      C1090   1.413       .  A
C1090      F1093   1.358       .  S
C1091      C1094   1.407       .  A
C1091      C1098   1.405       .  A
C1094      C1095   1.401       .  A
C1094      F1099   1.358       .  S
C1095      C1096   1.405       .  A
C1095      F1101   1.358       .  S
C1096      C1097   1.405       .  A
C1097      C1098   1.399       .  A
C1097      F1100   1.357       .  S
C1098      F1102   1.358       .  S
C1105      C1106   1.402       .  A
C1105      C1110   1.400       .  A
C1105      F1123   1.358       .  S
C1106      C1111   1.480       .  S
C1106      C1107   1.403       .  A
C1107      C1108   1.400       .  A
C1107      F1112   1.358       .  S
C1108      C1109   1.412       .  A
C1108      F1124   1.358       .  S
C1109      C1110   1.413       .  A
C1110      F1113   1.358       .  S
C1111      C1114   1.405       .  A
C1111      C1118   1.404       .  A
C1114      C1115   1.401       .  A
C1114      F1119   1.358       .  S
C1115      C1116   1.406       .  A
C1115      F1121   1.358       .  S
C1116      C1117   1.406       .  A
C1117      C1118   1.399       .  A
C1117      F1120   1.357       .  S
C1118      F1122   1.358       .  S
C1125      C1126   1.403       .  A
C1125      C1130   1.397       .  A
C1125      F1143   1.358       .  S
C1126      C1131   1.471       .  S
C1126      C1127   1.403       .  A
C1127      C1128   1.396       .  A
C1127      F1132   1.358       .  S
C1128      C1129   1.404       .  A
C1128      F1144   1.358       .  S
C1129      C1130   1.406       .  A
C1130      F1133   1.358       .  S
C1131      C1134   1.401       .  A
C1131      C1138   1.400       .  A
C1134      C1135   1.398       .  A
C1134      F1139   1.358       .  S
C1135      C1136   1.412       .  A
C1135      F1141   1.358       .  S
C1136      C1137   1.413       .  A
C1137      C1138   1.396       .  A
C1137      F1140   1.358       .  S
C1138      F1142   1.358       .  S
C1145      C1146   1.405       .  A
C1145      C1150   1.399       .  A
C1145      F1163   1.358       .  S
C1146      C1151   1.480       .  S
C1146      C1147   1.406       .  A
C1147      C1148   1.399       .  A
C1147      F1152   1.358       .  S
C1148      C1149   1.403       .  A
C1148      F1164   1.358       .  S
C1149      C1150   1.407       .  A
C1150      F1153   1.358       .  S
C1151      C1154   1.405       .  A
C1151      C1158   1.401       .  A
C1154      C1155   1.402       .  A
C1154      F1159   1.358       .  S
C1155      C1156   1.414       .  A
C1155      F1161   1.358       .  S
C1156      C1157   1.413       .  A
C1157      C1158   1.395       .  A
C1157      F1160   1.358       .  S
C1158      F1162   1.358       .  S
C1165      C1166   1.405       .  A
C1165      C1170   1.400       .  A
C1165      F1183   1.358       .  S
C1166      C1171   1.483       .  S
C1166      C1167   1.404       .  A
C1167      C1168   1.397       .  A
C1167      F1172   1.358       .  S
C1168      C1169   1.410       .  A
C1168      F1184   1.358       .  S
C1169      C1170   1.411       .  A
C1170      F1173   1.358       .  S
C1171      C1174   1.408       .  A
C1171      C1178   1.407       .  A
C1174      C1175   1.398       .  A
C1174      F1179   1.358       .  S
C1175      C1176   1.402       .  A
C1175      F1181   1.358       .  S
C1176      C1177   1.403       .  A
C1177      C1178   1.398       .  A
C1177      F1180   1.358       .  S
C1178      F1182   1.358       .  S
C1185      C1186   1.405       .  A
C1185      C1190   1.400       .  A
C1185      F1203   1.358       .  S
C1186      C1191   1.481       .  S
C1186      C1187   1.404       .  A
C1187      C1188   1.399       .  A
C1187      F1192   1.358       .  S
C1188      C1189   1.410       .  A
C1188      F1204   1.358       .  S
C1189      C1190   1.409       .  A
C1190      F1193   1.358       .  S
C1191      C1194   1.405       .  A
C1191      C1198   1.405       .  A
C1194      C1195   1.399       .  A
C1194      F1199   1.358       .  S
C1195      C1196   1.407       .  A
C1195      F1201   1.357       .  S
C1196      C1197   1.406       .  A
C1197      C1198   1.400       .  A
C1197      F1200   1.358       .  S
C1198      F1202   1.358       .  S
C1205      C1206   1.403       .  A
C1205      C1210   1.395       .  A
C1205      F1223   1.358       .  S
C1206      C1211   1.472       .  S
C1206      C1207   1.404       .  A
C1207      C1208   1.397       .  A
C1207      F1212   1.358       .  S
C1208      C1209   1.404       .  A
C1208      F1224   1.358       .  S
C1209      C1210   1.405       .  A
C1210      F1213   1.357       .  S
C1211      C1214   1.403       .  A
C1211      C1218   1.402       .  A
C1214      C1215   1.398       .  A
C1214      F1219   1.358       .  S
C1215      C1216   1.408       .  A
C1215      F1221   1.358       .  S
C1216      C1217   1.408       .  A
C1217      C1218   1.395       .  A
C1217      F1220   1.358       .  S
C1218      F1222   1.358       .  S
