geometry optimzed in LAMMPS
_audit_creation_date              2020-12-01 
_audit_creation_method            'lammps2cif' 
_symmetry_space_group_name_H-M    'P1' 
_symmetry_Int_Tables_number       1 
_symmetry_cell_setting            triclinic 
loop_ 
_symmetry_equiv_pos_as_xyz 
  x,y,z 
_cell_length_a                    53.09247526 
_cell_length_b                    39.4358049760238 
_cell_length_c                    39.82541845579972 
_cell_angle_alpha                 90.1709965153857 
_cell_angle_beta                  114.03840646866024 
_cell_angle_gamma                 90.60136448701279 
loop_ 
_atom_site_label 
_atom_site_type_symbol 
_atom_site_fract_x 
_atom_site_fract_y 
_atom_site_fract_z 
_atom_site_charge 
O1          O  0.64066170  0.41256586  0.96730774    -0.57300
C2          C  0.56651386  0.42989688  0.96360590     0.75300
O3          O  0.56468594  0.38028640  0.86512838    -0.58500
C4          C  0.65444685  0.38855965  0.96246105     0.75300
C5          C  0.57601374  0.31931301  0.93801980     0.77700
Cd6        Cd  0.59440499  0.38672545  0.93105369     1.37500
O7          O  0.58380042  0.40812012  0.98248134    -0.57300
O8          O  0.57580141  0.34343542  0.95887822    -0.56100
C9          C  0.57371452  0.40634163  0.85497636     0.77600
O10         O  0.58443313  0.32639948  0.91336504    -0.58500
O11         O  0.56267897  0.43227728  0.93021219    -0.57000
O12         O  0.64068114  0.36338652  0.94433708    -0.56900
O13         O  0.59228058  0.42344847  0.87999815    -0.56100
O14         O  0.92555144  0.42979290  0.03361574    -0.57300
C15         C  0.86049011  0.38680196  0.04026206     0.75300
O16         O  0.94282297  0.32457477  0.08296177    -0.58500
C17         C  0.94990068  0.42290422  0.03772211     0.75300
C18         C  0.93608991  0.40424913  0.14283079     0.77700
Cd19       Cd  0.91958700  0.38016784  0.06774760     1.37500
O20         O  0.87346629  0.39831993  0.02209397    -0.57300
O21         O  0.94211013  0.42009576  0.11951901    -0.56100
C22         C  0.92803596  0.31073239  0.05242808     0.77600
O23         O  0.92376515  0.37612469  0.13207578    -0.58500
O24         O  0.87472522  0.37246634  0.07021474    -0.57000
O25         O  0.95989144  0.39581430  0.05472081    -0.56900
O26         O  0.91041503  0.32923662  0.02875309    -0.56100
N27         N  0.51939668  0.05080713  0.03448759    -0.36100
N28         N  0.50732277  0.02787198  0.95956525    -0.56700
N29         N  0.49594106  0.96099388  0.97873887    -0.36100
N30         N  0.50944102  0.98295949  0.05381916    -0.56700
C31         C  0.52887976  0.07743504  0.02154625     0.27500
C32         C  0.53027614  0.05364024  0.07159289     0.27500
C33         C  0.49676056  0.95467999  0.94580858     0.27500
C34         C  0.49752392  0.93089125  0.99548118     0.27500
C35         C  0.50816996  0.06168471  0.95511027     0.36100
C36         C  0.49534007  0.01416966  0.92548373     0.36100
C37         C  0.51199434  0.99943907  0.08483866     0.36100
C38         C  0.49838332  0.95218574  0.05476771     0.36100
C39         C  0.54567521  0.09778323  0.05073714    -0.21400
C40         C  0.54655313  0.08274869  0.08234479    -0.21400
C41         C  0.49913022  0.92009738  0.94165241    -0.21400
C42         C  0.49951447  0.90503283  0.97302083    -0.21400
C43         C  0.49701123  0.06955131  0.91802719    -0.22500
C44         C  0.48870023  0.03939096  0.89920734    -0.22500
C45         C  0.50287144  0.97889220  0.10588014    -0.22500
C46         C  0.49407017  0.94896232  0.08668556    -0.22500
C47         C  0.52112152  0.08514163  0.98399808    -0.17800
C48         C  0.52463821  0.03163621  0.09576316    -0.17800
C49         C  0.49430566  0.92606426  0.02867138    -0.17800
C50         C  0.49222636  0.97899567  0.91798459    -0.17800
H51         H  0.55593252  0.12127950  0.04937704     0.15100
H52         H  0.55765236  0.09236944  0.11004790     0.15100
H53         H  0.49957398  0.90703010  0.91796225     0.15100
H54         H  0.50039349  0.87806187  0.97827872     0.15100
H55         H  0.49535393  0.09437971  0.90584545     0.13400
H56         H  0.47933849  0.03634546  0.86961182     0.13400
H57         H  0.50288577  0.98472507  0.13246334     0.13400
H58         H  0.48603867  0.92706117  0.09560444     0.13400
H59         H  0.50388286  0.03385105  0.01857341     0.26600
H60         H  0.49032918  0.98382587  0.98689833     0.26600
N61         N  0.96461942  0.03739173  0.94779770    -0.36100
N62         N  0.98026039  0.97074794  0.93160872    -0.56700
N63         N  0.00083174  0.95388525  0.00856848    -0.36100
N64         N  0.98418312  0.01960627  0.02509204    -0.56700
C65         C  0.96902535  0.04363786  0.91718560     0.27500
C66         C  0.96533637  0.06772605  0.96418965     0.27500
C67         C  0.00097131  0.92268631  0.99445240     0.27500
C68         C  0.00571832  0.94986512  0.04438615     0.27500
C69         C  0.97189031  0.98432360  0.89780736     0.36100
C70         C  0.98664588  0.93819927  0.92850841     0.36100
C71         C  0.97987956  0.05305467  0.02725901     0.36100
C72         C  0.00213998  0.01030165  0.05892662     0.36100
C73         C  0.97334264  0.07813013  0.91475057    -0.21400
C74         C  0.97170576  0.09323606  0.94496335    -0.21400
C75         C  0.00646096  0.89864359  0.02182350    -0.21400
C76         C  0.00926502  0.91577730  0.05329109    -0.21400
C77         C  0.97202914  0.95993262  0.87273264    -0.22500
C78         C  0.98161641  0.93074163  0.89228130    -0.22500
C79         C  0.99668890  0.06548743  0.06192146    -0.22500
C80         C  0.01014935  0.03811476  0.08235937    -0.22500
C81         C  0.96811146  0.01932454  0.89050639    -0.17800
C82         C  0.96205728  0.07241480  0.99738218    -0.17800
C83         C  0.00898790  0.97646064  0.06972373    -0.17800
C84         C  0.99740727  0.91524373  0.95799033    -0.17800
H85         H  0.97760845  0.09101131  0.89363579     0.15100
H86         H  0.97485416  0.11993086  0.95201689     0.15100
H87         H  0.00828166  0.87152531  0.01938882     0.15100
H88         H  0.01389798  0.90446227  0.07984983     0.15100
H89         H  0.96703721  0.96324111  0.84375506     0.13400
H90         H  0.98491111  0.90693172  0.88118767     0.13400
H91         H  0.99901858  0.09149406  0.07154759     0.13400
H92         H  0.02424669  0.03856143  0.11109172     0.13400
H93         H  0.95888375  0.01429176  0.95546245     0.26600
H94         H  0.00042602  0.97692074  0.99581984     0.26600
O95         O  0.41952920  0.67233196  0.04007318    -0.57300
C96         C  0.43781252  0.59974372  0.15323934     0.75300
O97         O  0.37273357  0.61468096  0.03155274    -0.58500
C98         C  0.43545370  0.69069073  0.06648005     0.75300
C99         C  0.45093083  0.57815274  0.05071325     0.77700
Cd100      Cd  0.42063087  0.62284117  0.07854471     1.37500
O101        O  0.44461681  0.62872441  0.14595211    -0.57300
O102        O  0.46056398  0.60614702  0.06636566    -0.56100
C103        C  0.36113522  0.62622740  0.05132017     0.77600
O104        O  0.42650741  0.57090914  0.04639453    -0.58500
O105        O  0.42346123  0.58129888  0.12594316    -0.57000
O106        O  0.44424245  0.67766666  0.09812806    -0.56900
O107        O  0.37691637  0.63643342  0.08316565    -0.56100
O108        O  0.07512534  0.63407317  0.85435462    -0.57300
C109        C  0.07108474  0.68742266  0.92851430     0.75300
O110        O  0.07923025  0.59972223  0.96894768    -0.58500
C111        C  0.08182660  0.60581682  0.84547419     0.75300
C112        C  0.15318943  0.62409816  0.95429534     0.77700
Cd113      Cd  0.09339578  0.62259958  0.92103824     1.37500
O114        O  0.05769120  0.66648714  0.90323643    -0.57300
O115        O  0.13920543  0.64663786  0.93231836    -0.56100
C116        C  0.06389478  0.57621035  0.94918213     0.77600
O117        O  0.13964812  0.60080471  0.96161375    -0.58500
O118        O  0.09483324  0.67833339  0.95063930    -0.57000
O119        O  0.09422484  0.58564146  0.87148202    -0.56900
O120        O  0.06323743  0.57330570  0.91724983    -0.56100
O121        O  0.14198413  0.93234439  0.45462191    -0.57300
C122        C  0.06912058  0.94702086  0.45267199     0.75300
O123        O  0.06478197  0.89632395  0.35114559    -0.58500
C124        C  0.15582077  0.91232510  0.44398271     0.75300
C125        C  0.08526205  0.83622752  0.42862682     0.77700
Cd126      Cd  0.09620146  0.90576653  0.41670454     1.37500
O127        O  0.07546960  0.95866851  0.42758827    -0.57300
O128        O  0.10900509  0.84962442  0.44439705    -0.56100
C129        C  0.07490731  0.91975206  0.33871496     0.77600
O130        O  0.06655143  0.85500089  0.40690731    -0.58500
O131        O  0.07635991  0.91697596  0.46252655    -0.57000
O132        O  0.14208587  0.88933730  0.42165120    -0.56900
O133        O  0.09472298  0.93641885  0.36220059    -0.56100
O134        O  0.43151732  0.93454226  0.54278296    -0.57300
C135        C  0.36310471  0.89687429  0.54182881     0.75300
O136        O  0.44846188  0.83425134  0.59017863    -0.58500
C137        C  0.45715826  0.92958259  0.55404633     0.75300
C138        C  0.43507155  0.90575284  0.65344018     0.76900
Cd139      Cd  0.42234377  0.88741093  0.57743479     1.37500
O140        O  0.37917998  0.90955973  0.52877544    -0.57300
O141        O  0.43515348  0.92729762  0.63004056    -0.56100
C142        C  0.43347337  0.81877390  0.56088414     0.77600
O143        O  0.42924256  0.87555884  0.64187409    -0.58500
O144        O  0.37437899  0.87989104  0.57096457    -0.57000
O145        O  0.46671141  0.90522060  0.57598689    -0.56900
O146        O  0.41327803  0.83515522  0.53855368    -0.56100
N147        N  0.47516512  0.53889850  0.46733788    -0.36100
N148        N  0.48985296  0.47099476  0.45264100    -0.56700
N149        N  0.50741805  0.45492725  0.53042862    -0.36100
N150        N  0.49258063  0.52256326  0.54523499    -0.56700
C151        C  0.47218445  0.54295362  0.43213824     0.27500
C152        C  0.47348013  0.57002188  0.48071184     0.27500
C153        C  0.50981077  0.42401197  0.51723859     0.27500
C154        C  0.51031239  0.45070252  0.56554551     0.27500
C155        C  0.48214521  0.48359398  0.41844538     0.36100
C156        C  0.49860126  0.43914060  0.45162787     0.36100
C157        C  0.48558966  0.55517118  0.54681006     0.36100
C158        C  0.50102253  0.51014508  0.57963184     0.36100
C159        C  0.46756431  0.57688024  0.42273620    -0.21400
C160        C  0.46830476  0.59386687  0.45321522    -0.21400
C161        C  0.51478938  0.39999427  0.54450138    -0.21400
C162        C  0.51505077  0.41676786  0.57487380    -0.21400
C163        C  0.48550428  0.45932690  0.39538118    -0.22500
C164        C  0.49607004  0.43125196  0.41644059    -0.22500
C165        C  0.48949726  0.56350329  0.58247058    -0.22500
C166        C  0.49931285  0.53501513  0.60325710    -0.22500
C167        C  0.47409317  0.51740050  0.40812213    -0.17800
C168        C  0.47666418  0.57806725  0.51699958    -0.17800
C169        C  0.50952981  0.47645229  0.59002686    -0.17800
C170        C  0.50839421  0.41664009  0.48167104    -0.17800
H171        H  0.46442545  0.58843822  0.39673492     0.15100
H172        H  0.46582026  0.62092475  0.45502505     0.15100
H173        H  0.51782482  0.37306297  0.54271633     0.15100
H174        H  0.51836797  0.40517034  0.60091509     0.15100
H175        H  0.48140773  0.46184264  0.36656947     0.13400
H176        H  0.50131019  0.40772973  0.40690154     0.13400
H177        H  0.48587572  0.58767596  0.59255935     0.13400
H178        H  0.50444887  0.53282840  0.63239452     0.13400
H179        H  0.47659227  0.51606066  0.48073559     0.26600
H180        H  0.50663785  0.47788124  0.51744152     0.26600
N181        N  0.03256564  0.56232821  0.52124093    -0.36100
N182        N  0.01892352  0.54265062  0.44525541    -0.56700
N183        N  0.99874943  0.47788212  0.45935132    -0.36100
N184        N  0.01429093  0.49659909  0.53565658    -0.56700
C185        C  0.04481776  0.58782366  0.51059029     0.27500
C186        C  0.04236499  0.56369557  0.55834453     0.27500
C187        C  0.99850491  0.47207003  0.42577213     0.27500
C188        C  0.99666736  0.44740578  0.47352092     0.27500
C189        C  0.02404666  0.57600649  0.44320479     0.36100
C190        C  0.00568693  0.53136103  0.41028648     0.36100
C191        C  0.01850233  0.51217762  0.56777955     0.36100
C192        C  0.00069213  0.46726917  0.53488213     0.36100
C193        C  0.06249680  0.60580084  0.54128999    -0.21400
C194        C  0.06090520  0.59061044  0.57143289    -0.21400
C195        C  0.99607809  0.43750803  0.41838203    -0.21400
C196        C  0.99497378  0.42191930  0.44857919    -0.21400
C197        C  0.01449692  0.58584223  0.40675916    -0.22500
C198        C  0.00280527  0.55748460  0.38585323    -0.22500
C199        C  0.00783302  0.49243257  0.58776576    -0.22500
C200        C  0.99648074  0.46398096  0.56685537    -0.22500
C201        C  0.03845265  0.59725549  0.47379999    -0.17800
C202        C  0.03358535  0.54276406  0.58043023    -0.17800
C203        C  0.99409479  0.44219895  0.50708285    -0.17800
C204        C  0.99765968  0.49730785  0.40025676    -0.17800
H205        H  0.07480108  0.62803137  0.54185062     0.15100
H206        H  0.07182115  0.59882322  0.59971357     0.15100
H207        H  0.99465687  0.42488866  0.39348390     0.15100
H208        H  0.99257209  0.39493868  0.45148535     0.15100
H209        H  0.01591529  0.61078822  0.39634911     0.13400
H210        H  0.99346718  0.55616051  0.35612016     0.13400
H211        H  0.00850217  0.49773165  0.61480066     0.13400
H212        H  0.98670300  0.44299726  0.57458153     0.13400
H213        H  0.01588608  0.54778406  0.50398371     0.26600
H214        H  0.99661619  0.50136814  0.46968994     0.26600
O215        O  0.59603202  0.08140358  0.38908713    -0.57300
C216        C  0.58014420  0.18934466  0.44713066     0.75300
O217        O  0.59849640  0.08250805  0.48107499    -0.58500
C218        C  0.58889506  0.10181316  0.36246040     0.75300
C219        C  0.66117331  0.12706141  0.46952693     0.77700
Cd220      Cd  0.60149608  0.12468629  0.43683416     1.37500
O221        O  0.56760319  0.17038696  0.41963609    -0.57300
O222        O  0.64688468  0.14536153  0.44255602    -0.56100
C223        C  0.57247181  0.07983027  0.46624877     0.77600
O224        O  0.64796927  0.10801425  0.48241458    -0.58500
O225        O  0.60303063  0.17865214  0.47017387    -0.57000
O226        O  0.58869401  0.13282617  0.37045290    -0.56900
O227        O  0.56011154  0.09741624  0.43794970    -0.56100
O228        O  0.94491720  0.19866277  0.58701802    -0.57300
C229        C  0.93912465  0.11369590  0.64285706     0.75300
O230        O  0.87811535  0.12096286  0.53529955    -0.58500
C231        C  0.93759349  0.20846940  0.55417245     0.75300
C232        C  0.95641326  0.09659094  0.54370424     0.77700
Cd233      Cd  0.92567220  0.14096654  0.57097160     1.37500
O234        O  0.95256758  0.13869337  0.63823420    -0.57300
O235        O  0.93092554  0.10164576  0.52528551    -0.56100
C236        C  0.86713646  0.14156298  0.54972946     0.77600
O237        O  0.96749464  0.11220264  0.57408461    -0.58500
O238        O  0.91980455  0.10192651  0.61434471    -0.57000
O239        O  0.92470101  0.18710444  0.52913003    -0.56900
O240        O  0.88304691  0.16288210  0.57252817    -0.56100
C241        C  0.69169922  0.12747025  0.48419652     0.01800
C242        C  0.70462806  0.12215492  0.45992031     0.04600
C243        C  0.73349227  0.12474197  0.47275167    -0.11400
C244        C  0.74970315  0.13244135  0.50997878     0.23900
C245        C  0.73698022  0.13659967  0.53461640    -0.12000
C246        C  0.70802323  0.13395480  0.52182359     0.05400
C247        C  0.78015585  0.13565584  0.52297004     0.27800
C248        C  0.79685622  0.10710150  0.53676882    -0.12700
C249        C  0.82541024  0.10935530  0.54625092     0.05900
C250        C  0.83734632  0.14002687  0.54129558    -0.08600
C251        C  0.82084015  0.16904070  0.52900100     0.06700
C252        C  0.79228237  0.16682146  0.51986714    -0.13000
Br253      Br  0.75939505  0.14629325  0.58575992    -0.05100
Br254      Br  0.68291197  0.10941699  0.40931580     0.00500
Br255      Br  0.84842371  0.07089835  0.56812470     0.01000
Br256      Br  0.76956019  0.20629043  0.50262108    -0.03400
Br257      Br  0.69083620  0.14049044  0.55566714     0.01100
Br258      Br  0.75101270  0.11757122  0.43935672    -0.02700
Br259      Br  0.78045092  0.06479593  0.54233420    -0.03600
Br260      Br  0.83705990  0.21149682  0.52328400     0.00400
C261        C  0.94405617  0.24303832  0.54559816     0.01800
C262        C  0.93805704  0.27138801  0.56264384     0.04600
C263        C  0.94641110  0.30407367  0.55703130    -0.11400
C264        C  0.95923089  0.30880426  0.53257195     0.23900
C265        C  0.96397337  0.28070880  0.51407994    -0.12000
C266        C  0.95702998  0.24780627  0.52123474     0.05400
C267        C  0.96802438  0.34324167  0.52651779     0.27800
C268        C  0.94853453  0.36583228  0.50273792    -0.12700
C269        C  0.95699476  0.39827579  0.49657935     0.05900
C270        C  0.98500480  0.40809849  0.51396188    -0.08600
C271        C  0.00455856  0.38527243  0.53716921     0.06700
C272        C  0.99603960  0.35306629  0.54382306    -0.13000
Br273      Br  0.98035498  0.28743205  0.47926079    -0.05100
Br274      Br  0.91709327  0.26577816  0.59214370     0.00500
Br275      Br  0.93033560  0.42917169  0.46395156     0.01000
Br276      Br  0.02275228  0.32225646  0.57651212    -0.03400
Br277      Br  0.96715842  0.20931671  0.49953484     0.01100
Br278      Br  0.94104481  0.34231825  0.58363114    -0.02700
Br279      Br  0.91034074  0.35199558  0.47816922    -0.03600
Br280      Br  0.04317451  0.39775375  0.55857143     0.00400
C281        C  0.56853802  0.22217258  0.45183965     0.01800
C282        C  0.56902144  0.23157198  0.48641488     0.04600
C283        C  0.55820329  0.26292869  0.49076236    -0.11400
C284        C  0.54674593  0.28492422  0.46067287     0.23900
C285        C  0.54553395  0.27531957  0.42601771    -0.12000
C286        C  0.55637592  0.24408335  0.42151011     0.05400
C287        C  0.53666921  0.31867218  0.46564516     0.27800
C288        C  0.50864603  0.32310958  0.45853421    -0.12700
C289        C  0.49929437  0.35515194  0.46363284     0.05900
C290        C  0.51792076  0.38279656  0.47556825    -0.08600
C291        C  0.54577026  0.37855303  0.48174867     0.06700
C292        C  0.55513540  0.34653106  0.47676593    -0.13000
Br293      Br  0.52912651  0.30543526  0.38481748    -0.05100
Br294      Br  0.58289154  0.20090800  0.52750107     0.00500
Br295      Br  0.46105124  0.36145270  0.45427232     0.01000
Br296      Br  0.59311834  0.34082929  0.48434006    -0.03400
Br297      Br  0.55543483  0.23251223  0.37383897     0.01100
Br298      Br  0.55874601  0.27590029  0.53784084    -0.02700
Br299      Br  0.48309636  0.28540911  0.44107582    -0.03600
Br300      Br  0.57091741  0.41686495  0.49662036     0.00400
C301        C  0.55709612  0.05747781  0.48109873     0.01800
C302        C  0.56225362  0.02238923  0.48445219     0.04600
C303        C  0.54694800  0.00102306  0.49765823    -0.11400
C304        C  0.52606827  0.01457711  0.50681745     0.23900
C305        C  0.52090811  0.04965642  0.50340039    -0.12000
C306        C  0.53660335  0.07112882  0.49099077     0.05400
C307        C  0.50894621  0.99194458  0.51907303     0.27800
C308        C  0.48511085  0.97614654  0.49282918    -0.12700
C309        C  0.46815537  0.95579211  0.50425343     0.05900
C310        C  0.47502196  0.95100600  0.54207863    -0.08600
C311        C  0.49905645  0.96666837  0.56836357     0.06700
C312        C  0.51594413  0.98710597  0.55684323    -0.13000
Br313      Br  0.49198295  0.06811770  0.51525050    -0.05100
Br314      Br  0.58917046  0.00333614  0.46894981     0.00500
Br315      Br  0.43610221  0.93342368  0.46786134     0.01000
Br316      Br  0.54853259  0.00899297  0.59266501    -0.03400
Br317      Br  0.53079496  0.11947830  0.48902334     0.01100
Br318      Br  0.55423669  0.95309197  0.50276664    -0.02700
Br319      Br  0.47574179  0.98264196  0.44112232    -0.03600
Br320      Br  0.50813592  0.96178454  0.62021966     0.00400
C321        C  0.43927338  0.78332718  0.55371463     0.01800
C322        C  0.44668005  0.75920782  0.58227767     0.04600
C323        C  0.45363963  0.72603891  0.57644686    -0.11400
C324        C  0.45260036  0.71638753  0.54187225     0.23900
C325        C  0.44458969  0.73996531  0.51302102    -0.12000
C326        C  0.43798637  0.77339018  0.51884716     0.05400
C327        C  0.45895545  0.68098631  0.53555174     0.27800
C328        C  0.48584484  0.67233640  0.54008250    -0.12700
C329        C  0.49176765  0.63863688  0.53439606     0.05900
C330        C  0.47082897  0.61353140  0.52431455    -0.08600
C331        C  0.44395983  0.62222871  0.51966674     0.06700
C332        C  0.43802265  0.65589451  0.52525439    -0.13000
Br333      Br  0.44277175  0.72611325  0.46552770    -0.05100
Br334      Br  0.44546815  0.77048613  0.62884607     0.00500
Br335      Br  0.52832598  0.62680033  0.53958584     0.01000
Br336      Br  0.40114484  0.66788714  0.51849204    -0.03400
Br337      Br  0.42820703  0.80546762  0.47914834     0.01100
Br338      Br  0.46448318  0.69343746  0.61575998    -0.02700
Br339      Br  0.51439306  0.70678715  0.55381963    -0.03600
Br340      Br  0.41527538  0.58791053  0.50512721     0.00400
C341        C  0.05331573  0.96717875  0.46871071     0.01800
C342        C  0.02656501  0.95648687  0.46380118     0.04600
C343        C  0.01053945  0.97702310  0.47633632    -0.11400
C344        C  0.02139406  0.00795671  0.49457043     0.23900
C345        C  0.04851394  0.01797243  0.50077370    -0.12000
C346        C  0.06432315  0.99783336  0.48751828     0.05400
C347        C  0.00422535  0.03021274  0.50684489     0.27800
C348        C  0.98869370  0.05635345  0.48389616    -0.12700
C349        C  0.97267406  0.07773248  0.49561093     0.05900
C350        C  0.97254938  0.07352666  0.53074364    -0.08600
C351        C  0.98838239  0.04750814  0.55384051     0.06700
C352        C  0.00380771  0.02563555  0.54166733    -0.13000
Br353      Br  0.06389814  0.05935804  0.52755250    -0.05100
Br354      Br  0.01134164  0.91439349  0.43842962     0.00500
Br355      Br  0.95213835  0.11391276  0.46416023     0.01000
Br356      Br  0.02437548  0.98914693  0.57253315    -0.03400
Br357      Br  0.10139003  0.01170718  0.49604143     0.01100
Br358      Br  0.97346933  0.96325001  0.46799085    -0.02700
Br359      Br  0.98979509  0.06304716  0.43654001    -0.03600
Br360      Br  0.98849392  0.04097923  0.60190466     0.00400
C361        C  0.04642873  0.63197770  0.46713414     0.01800
C362        C  0.03052897  0.65973353  0.46893263     0.04600
C363        C  0.03850299  0.69282784  0.46427033    -0.11400
C364        C  0.06197748  0.69819428  0.45679134     0.23900
C365        C  0.07778788  0.67044740  0.45468413    -0.12000
C366        C  0.07000203  0.63731137  0.45982385     0.05400
C367        C  0.06910981  0.73297523  0.44942420     0.27800
C368        C  0.05750704  0.74554144  0.41334122    -0.12700
C369        C  0.06288801  0.77918479  0.40631618     0.05900
C370        C  0.07970046  0.80062173  0.43562417    -0.08600
C371        C  0.09114242  0.78786252  0.47188679     0.06700
C372        C  0.08624453  0.75394457  0.47857747    -0.13000
Br373      Br  0.11006407  0.67806704  0.44482709    -0.05100
Br374      Br  0.99724031  0.65213122  0.47647538     0.00500
Br375      Br  0.04767185  0.79504490  0.35621265     0.01000
Br376      Br  0.10270675  0.73604690  0.52776551    -0.03400
Br377      Br  0.09137486  0.59918451  0.45658644     0.01100
Br378      Br  0.01732800  0.73094968  0.46813582    -0.02700
Br379      Br  0.03406796  0.71634521  0.37361997    -0.03600
Br380      Br  0.11160310  0.81726631  0.51316873     0.00400
C381        C  0.33273833  0.90154008  0.52429197     0.01800
C382        C  0.32142793  0.93406398  0.51323272     0.04600
C383        C  0.29260106  0.93847060  0.49875468    -0.11400
C384        C  0.27496121  0.91061324  0.49575132     0.23900
C385        C  0.28612877  0.87810456  0.50599689    -0.12000
C386        C  0.31482770  0.87346659  0.51972665     0.05400
C387        C  0.24457507  0.91504513  0.48167945     0.27800
C388        C  0.23241834  0.92367815  0.50600713    -0.12700
C389        C  0.20345304  0.92365237  0.49373248     0.05900
C390        C  0.18636649  0.91523247  0.45670019    -0.08600
C391        C  0.19879960  0.90833521  0.43195533     0.06700
C392        C  0.22773949  0.90809914  0.44452889    -0.13000
Br393      Br  0.26185248  0.83986596  0.50126870    -0.05100
Br394      Br  0.34521271  0.97310080  0.51952871     0.00500
Br395      Br  0.18778644  0.93283972  0.52885052     0.01000
Br396      Br  0.24465713  0.89757832  0.41110014    -0.03400
Br397      Br  0.32925885  0.82812891  0.53017109     0.01100
Br398      Br  0.27706085  0.98266123  0.48319003    -0.02700
Br399      Br  0.25576148  0.93443346  0.55661978    -0.03600
Br400      Br  0.17660195  0.90018848  0.38029812     0.00400
C401        C  0.07522033  0.59665347  0.80669067     0.01800
C402        C  0.08223240  0.61897117  0.78408336     0.04600
C403        C  0.07519362  0.61059473  0.74692049    -0.11400
C404        C  0.06165946  0.57961125  0.73237113     0.23900
C405        C  0.05526223  0.55690827  0.75507918    -0.12000
C406        C  0.06171608  0.56553503  0.79202794     0.05400
C407        C  0.05459611  0.57062515  0.69331610     0.27800
C408        C  0.02945892  0.58121477  0.66559956    -0.12700
C409        C  0.02293009  0.57283666  0.62859015     0.05900
C410        C  0.04114655  0.55304656  0.61933636    -0.08600
C411        C  0.06625483  0.54244837  0.64702384     0.06700
C412        C  0.07310524  0.55154102  0.68391355    -0.13000
Br413      Br  0.03780062  0.51384072  0.73539411    -0.05100
Br414      Br  0.10303913  0.66004226  0.80442948     0.00500
Br415      Br  0.98909626  0.58839534  0.59036176     0.01000
Br416      Br  0.10785656  0.53799407  0.72172735    -0.03400
Br417      Br  0.05073702  0.53526810  0.82183276     0.01100
Br418      Br  0.08443183  0.64120840  0.71581377    -0.02700
Br419      Br  0.00391926  0.60685101  0.67851181    -0.03600
Br420      Br  0.09118627  0.51551629  0.63418621     0.00400
C421        C  0.46987019  0.52789405  0.37032300     0.01800
C422        C  0.49274097  0.53784141  0.36307618     0.04600
C423        C  0.48874290  0.55013120  0.32818382    -0.11400
C424        C  0.46192308  0.55167628  0.30015177     0.23900
C425        C  0.43908681  0.54114094  0.30720777    -0.12000
C426        C  0.44304980  0.52943178  0.34231959     0.05400
C427        C  0.45758476  0.56460774  0.26326727     0.27800
C428        C  0.45005966  0.59858091  0.25424925    -0.12700
C429        C  0.44360641  0.61019920  0.21832824     0.05900
C430        C  0.44578633  0.58813497  0.19156217    -0.08600
C431        C  0.45479325  0.55453660  0.20136952     0.06700
C432        C  0.46016544  0.54268746  0.23691778    -0.13000
Br433      Br  0.40237237  0.54322901  0.26877026    -0.05100
Br434      Br  0.52951530  0.53484171  0.40123341     0.00500
Br435      Br  0.42982831  0.65563757  0.20565526     0.01000
Br436      Br  0.47072381  0.49620597  0.24961289    -0.03400
Br437      Br  0.41185531  0.51566409  0.35234673     0.01100
Br438      Br  0.51984933  0.56581789  0.31897319    -0.02700
Br439      Br  0.44838687  0.62900794  0.29134659    -0.03600
Br440      Br  0.46108361  0.52490297  0.16690873     0.00400
C441        C  0.18375148  0.62490598  0.97008361     0.01800
C442        C  0.19840605  0.65446129  0.98798202     0.04600
C443        C  0.22742371  0.65566805  0.00167989    -0.11400
C444        C  0.24198043  0.62729837  0.99782912     0.23900
C445        C  0.22739984  0.59772307  0.98016415    -0.12000
C446        C  0.19837896  0.59659571  0.96606670     0.05400
C447        C  0.27262595  0.62842396  0.01224622     0.27800
C448        C  0.28571831  0.64261363  0.99097956    -0.12700
C449        C  0.31471690  0.64304656  0.00436976     0.05900
C450        C  0.33073030  0.62750033  0.03813560    -0.08600
C451        C  0.31756269  0.61308029  0.05928986     0.06700
C452        C  0.28866349  0.61440235  0.04681372    -0.13000
Br453      Br  0.24735482  0.55890261  0.97485900    -0.05100
Br454      Br  0.17887240  0.69298947  0.99498396     0.00500
Br455      Br  0.33249811  0.66669066  0.97742265     0.01000
Br456      Br  0.27085030  0.59690887  0.07692547    -0.03400
Br457      Br  0.17869188  0.55704209  0.93897512     0.01100
Br458      Br  0.24739633  0.69614002  0.02585470    -0.02700
Br459      Br  0.26379783  0.66086027  0.94314831    -0.03600
Br460      Br  0.33879390  0.58941580  0.10419185     0.00400
C461        C  0.00712780  0.88185969  0.95094927     0.01800
C462        C  0.98878065  0.85406615  0.93783573     0.04600
C463        C  0.99869443  0.82231804  0.93280636    -0.11400
C464        C  0.02692199  0.81846244  0.94059048     0.23900
C465        C  0.04507520  0.84656014  0.95280164    -0.12000
C466        C  0.03524135  0.87810049  0.95829294     0.05400
C467        C  0.03783040  0.78466812  0.93731262     0.27800
C468        C  0.05072680  0.76472885  0.96888739    -0.12700
C469        C  0.06162074  0.73293470  0.96616293     0.05900
C470        C  0.05965077  0.72087288  0.93167651    -0.08600
C471        C  0.04677905  0.74107832  0.90008426     0.06700
C472        C  0.03597169  0.77287844  0.90297653    -0.13000
Br473      Br  0.08348972  0.84168707  0.96223403    -0.05100
Br474      Br  0.95030550  0.85957065  0.92758889     0.00500
Br475      Br  0.07806505  0.70556510  0.00967958     0.01000
Br476      Br  0.01917755  0.80089926  0.86008056    -0.03400
Br477      Br  0.06032341  0.91626990  0.97646386     0.01100
Br478      Br  0.97380933  0.78393617  0.91590050    -0.02700
Br479      Br  0.05343308  0.78130465  0.01595459    -0.03600
Br480      Br  0.04526135  0.72642173  0.85295299     0.00400
C481        C  0.94540718  0.09885288  0.67950717     0.01800
C482        C  0.94429358  0.06321492  0.68344573     0.04600
C483        C  0.94979166  0.04920001  0.71813124    -0.11400
C484        C  0.95572975  0.07054704  0.74881773     0.23900
C485        C  0.95680369  0.10593877  0.74510691    -0.12000
C486        C  0.95168760  0.12014450  0.71061094     0.05400
C487        C  0.95891413  0.05603946  0.78455596     0.27800
C488        C  0.93577724  0.05351102  0.79325924    -0.12700
C489        C  0.93878800  0.04141377  0.82782424     0.05900
C490        C  0.96494404  0.03163375  0.85372085    -0.08600
C491        C  0.98804586  0.03375589  0.84478903     0.06700
C492        C  0.98500190  0.04587613  0.81018291    -0.13000
Br493      Br  0.96444399  0.13488793  0.78742855    -0.05100
Br494      Br  0.93537737  0.03291824  0.64181263     0.00500
Br495      Br  0.90707661  0.03816595  0.83971815     0.01000
Br496      Br  0.01650251  0.04895415  0.79784650    -0.03400
Br497      Br  0.95100008  0.16892023  0.70599789     0.01100
Br498      Br  0.94887263  0.00064554  0.72382922    -0.02700
Br499      Br  0.90000607  0.06693152  0.75767018    -0.03600
Br500      Br  0.02393549  0.02076042  0.88032383     0.00400
C501        C  0.06415678  0.92749614  0.29896647     0.01800
C502        C  0.05857187  0.90109309  0.27270949     0.04600
C503        C  0.04813480  0.90866691  0.23497420    -0.11400
C504        C  0.04458361  0.94265136  0.22339129     0.23900
C505        C  0.05036123  0.96903799  0.24945549    -0.12000
C506        C  0.05972035  0.96152298  0.28707358     0.05400
C507        C  0.03538929  0.95080063  0.18385998     0.27800
C508        C  0.05460162  0.95125650  0.16769929    -0.12700
C509        C  0.04617868  0.96044471  0.13064234     0.05900
C510        C  0.01834124  0.96809873  0.10933112    -0.08600
C511        C  0.99901102  0.96690042  0.12529446     0.06700
C512        C  0.00759830  0.95872791  0.16262147    -0.13000
Br513      Br  0.04547435  0.01560321  0.23339317    -0.05100
Br514      Br  0.06733078  0.85474204  0.28815282     0.00500
Br515      Br  0.07274739  0.96309328  0.10908684     0.01000
Br516      Br  0.98132147  0.95819684  0.18474590    -0.03400
Br517      Br  0.06539785  0.99812636  0.32186722     0.01100
Br518      Br  0.03861104  0.87258815  0.19886762    -0.02700
Br519      Br  0.09242408  0.93906677  0.19636715    -0.03600
Br520      Br  0.96056771  0.97546372  0.09566774     0.00400
C521        C  0.48581784  0.89187172  0.03603817     0.01800
C522        C  0.45790566  0.88168097  0.01870556     0.04600
C523        C  0.44975065  0.84916512  0.02500062    -0.11400
C524        C  0.46958408  0.82647366  0.04789653     0.23900
C525        C  0.49745361  0.83675396  0.06552614    -0.12000
C526        C  0.50551614  0.86960475  0.05996071     0.05400
C527        C  0.46107322  0.79161383  0.05285039     0.27800
C528        C  0.45169743  0.78495107  0.08053814    -0.12700
C529        C  0.44266382  0.75211690  0.08437767     0.05900
C530        C  0.44352465  0.72556768  0.06095326    -0.08600
C531        C  0.45285533  0.73240896  0.03306036     0.06700
C532        C  0.46156205  0.76540665  0.02905145    -0.13000
Br533      Br  0.52449388  0.80562203  0.09696336    -0.05100
Br534      Br  0.43086009  0.91244241  0.98647944     0.00500
Br535      Br  0.42741972  0.74431821  0.12026497     0.01000
Br536      Br  0.47441574  0.77497553  0.99111068    -0.03400
Br537      Br  0.54348349  0.88418181  0.08483929     0.01100
Br538      Br  0.41140323  0.83557158  0.00245797    -0.02700
Br539      Br  0.45118044  0.82107976  0.11304525    -0.03600
Br540      Br  0.45490213  0.69660800  0.00110925     0.00400
C541        C  0.53391083  0.04185309  0.13510704     0.01800
C542        C  0.51817932  0.06448244  0.14595978     0.04600
C543        C  0.52694679  0.07367934  0.18326683    -0.11400
C544        C  0.55133933  0.06005109  0.20986494     0.23900
C545        C  0.56682502  0.03704976  0.19905723    -0.12000
C546        C  0.55830947  0.02827483  0.16173648     0.05400
C547        C  0.56114240  0.07047965  0.24910648     0.27800
C548        C  0.57992792  0.09780743  0.26271422    -0.12700
C549        C  0.58974365  0.10740170  0.30002681     0.05900
C550        C  0.58033857  0.09010821  0.32387327    -0.08600
C551        C  0.56144701  0.06267159  0.31007699     0.06700
C552        C  0.55198468  0.05288764  0.27284267    -0.13000
Br553      Br  0.59961542  0.01740192  0.23559703    -0.05100
Br554      Br  0.48449683  0.08248997  0.10967373     0.00500
Br555      Br  0.61708359  0.14325962  0.31852429     0.01000
Br556      Br  0.52591570  0.01580153  0.25386730    -0.03400
Br557      Br  0.58032762  0.99812857  0.14682181     0.01100
Br558      Br  0.50561336  0.10484822  0.19818144    -0.02700
Br559      Br  0.59180829  0.12237658  0.22977582    -0.03600
Br560      Br  0.54699606  0.03952410  0.34128022     0.00400
C561        C  0.44139451  0.91548429  0.69214547     0.01800
C562        C  0.42961900  0.94487942  0.69993624     0.04600
C563        C  0.43682557  0.95525062  0.73663150    -0.11400
C564        C  0.45510250  0.93573891  0.76580614     0.23900
C565        C  0.46574753  0.90552147  0.75817075    -0.12000
C566        C  0.45947067  0.89579058  0.72154912     0.05400
C567        C  0.46422870  0.94749692  0.80455953     0.27800
C568        C  0.49072358  0.96214689  0.82298780    -0.12700
C569        C  0.50045095  0.97075735  0.86050903     0.05900
C570        C  0.48295757  0.96717275  0.87911859    -0.08600
C571        C  0.45613768  0.95344515  0.86036578     0.06700
C572        C  0.44712932  0.94268161  0.82353133    -0.13000
Br573      Br  0.48914866  0.87758871  0.79829949    -0.05100
Br574      Br  0.40262719  0.97037367  0.66055062     0.00500
Br575      Br  0.53802644  0.98643348  0.88671772     0.01000
Br576      Br  0.41159107  0.92072040  0.79924073    -0.03400
Br577      Br  0.47751035  0.85685537  0.71227511     0.01100
Br578      Br  0.42196273  0.99647407  0.74703280    -0.02700
Br579      Br  0.51356625  0.97070975  0.79656034    -0.03600
Br580      Br  0.43144102  0.95015534  0.88488497     0.00400
C581        C  0.94265578  0.41838085  0.18019788     0.01800
C582        C  0.94049272  0.45372557  0.18489452     0.04600
C583        C  0.94861081  0.46773554  0.22034281    -0.11400
C584        C  0.95770397  0.44653516  0.25120466     0.23900
C585        C  0.95823962  0.41119157  0.24666251    -0.12000
C586        C  0.95098462  0.39705856  0.21135815     0.05400
C587        C  0.96767367  0.46146666  0.28865209     0.27800
C588        C  0.99607440  0.46807179  0.30851418    -0.12700
C589        C  0.00588418  0.48088952  0.34463433     0.05900
C590        C  0.98726961  0.48713777  0.36092489    -0.08600
C591        C  0.95878401  0.48124846  0.34075770     0.06700
C592        C  0.94899533  0.46835797  0.30467302    -0.13000
Br593      Br  0.96947512  0.38238177  0.28932356    -0.05100
Br594      Br  0.92446428  0.48319506  0.14299201     0.00500
Br595      Br  0.04488225  0.48857794  0.37235657     0.01000
Br596      Br  0.91014737  0.45922674  0.27748064    -0.03400
Br597      Br  0.95369961  0.34862145  0.20674018     0.01100
Br598      Br  0.94771989  0.51617364  0.22698582    -0.02700
Br599      Br  0.02152524  0.45856865  0.28637353    -0.03600
Br600      Br  0.93331422  0.49033470  0.36302465     0.00400
C601        C  0.96610418  0.44565188  0.02408081     0.01800
C602        C  0.98039690  0.43231815  0.00391236     0.04600
C603        C  0.99653147  0.45385341  0.99218765    -0.11400
C604        C  0.99813600  0.48887214  0.99992560     0.23900
C605        C  0.98389260  0.50230145  0.01991521    -0.12000
C606        C  0.96811076  0.48077748  0.03223568     0.05400
C607        C  0.01493553  0.51153621  0.98711361     0.27800
C608        C  0.04253624  0.51921919  0.01046681    -0.12700
C609        C  0.05866671  0.54013664  0.99812537     0.05900
C610        C  0.04716314  0.55375403  0.96227598    -0.08600
C611        C  0.01929772  0.54621418  0.93904101     0.06700
C612        C  0.00334747  0.52507795  0.95144439    -0.13000
Br613      Br  0.98653678  0.55025847  0.03088947    -0.05100
Br614      Br  0.97713864  0.38480155  0.99085381     0.00500
Br615      Br  0.09690928  0.54849033  0.03003936     0.01000
Br616      Br  0.96537102  0.51475483  0.91978791    -0.03400
Br617      Br  0.95090509  0.49938881  0.06246644     0.01100
Br618      Br  0.01686041  0.43552708  0.96580691    -0.02700
Br619      Br  0.05816799  0.50070997  0.05941548    -0.03600
Br620      Br  0.00207681  0.56620157  0.89084413     0.00400
C621        C  0.94734521  0.10341519  0.00349665     0.01800
C622        C  0.94658274  0.11059804  0.03802913     0.04600
C623        C  0.94354075  0.14422805  0.04742623    -0.11400
C624        C  0.93605958  0.16938031  0.02028596     0.23900
C625        C  0.92826054  0.15965362  0.98335043    -0.12000
C626        C  0.93231559  0.12604468  0.97474770     0.05400
C627        C  0.93426563  0.20534830  0.02993566     0.27800
C628        C  0.90948867  0.21799112  0.02973176    -0.12700
C629        C  0.90757879  0.25250731  0.03729929     0.05900
C630        C  0.93043541  0.27450453  0.04502403    -0.08600
C631        C  0.95529670  0.26175856  0.04556546     0.06700
C632        C  0.95724826  0.22715539  0.03828106    -0.13000
Br633      Br  0.91150064  0.19213324  0.94471553    -0.05100
Br634      Br  0.94079370  0.07473956  0.06724906     0.00500
Br635      Br  0.87386697  0.26943138  0.03825393     0.01000
Br636      Br  0.99133635  0.20937547  0.03953299    -0.03400
Br637      Br  0.91038848  0.10950566  0.92552266     0.01100
Br638      Br  0.94934281  0.15561378  0.09715835    -0.02700
Br639      Br  0.87823538  0.18789239  0.01906034    -0.03600
Br640      Br  0.98613258  0.29201798  0.05420926     0.00400
C641        C  0.56316508  0.41624023  0.81589604     0.01800
C642        C  0.55441545  0.44977198  0.80549774     0.04600
C643        C  0.54502907  0.45938013  0.76842722    -0.11400
C644        C  0.54425011  0.43558364  0.74160031     0.23900
C645        C  0.55224906  0.40189884  0.75169123    -0.12000
C646        C  0.56185205  0.39223964  0.78878747     0.05400
C647        C  0.53524108  0.44617682  0.70278787     0.27800
C648        C  0.50720152  0.44371177  0.67851761    -0.12700
C649        C  0.49869628  0.45375975  0.64169287     0.05900
C650        C  0.51812637  0.46708560  0.62932149    -0.08600
C651        C  0.54610599  0.47002432  0.65377989     0.06700
C652        C  0.55471794  0.45914913  0.69032917    -0.13000
Br653      Br  0.54997020  0.36911417  0.71444749    -0.05100
Br654      Br  0.55393299  0.48229879  0.84156406     0.00500
Br655      Br  0.46060838  0.44861625  0.60788292     0.01000
Br656      Br  0.59322599  0.46152102  0.72333548    -0.03400
Br657      Br  0.57460645  0.34655884  0.80242820     0.01100
Br658      Br  0.53280374  0.50507364  0.75398824    -0.02700
Br659      Br  0.48060695  0.42647559  0.69595847    -0.03600
Br660      Br  0.57255453  0.48890053  0.63696608     0.00400
C661        C  0.46781551  0.55503175  0.03909027     0.01800
C662        C  0.45714523  0.54060786  0.00339757     0.04600
C663        C  0.47376218  0.51944513  0.99250326    -0.11400
C664        C  0.50104938  0.51257252  0.01712682     0.23900
C665        C  0.51150664  0.52621935  0.05296318    -0.12000
C666        C  0.49508688  0.54759285  0.06387452     0.05400
C667        C  0.51891310  0.49142121  0.00509622     0.27800
C668        C  0.51887213  0.45591881  0.00875413    -0.12700
C669        C  0.53483373  0.43577135  0.99578654     0.05900
C670        C  0.55112915  0.45113143  0.97936573    -0.08600
C671        C  0.55172178  0.48678858  0.97666416     0.06700
C672        C  0.53571943  0.50686619  0.98962007    -0.13000
Br673      Br  0.54834369  0.51507083  0.08718049    -0.05100
Br674      Br  0.42044309  0.55135500  0.96846652     0.00500
Br675      Br  0.53282412  0.38701312  0.99838628     0.01000
Br676      Br  0.53676981  0.55563805  0.98636268    -0.03400
Br677      Br  0.50997849  0.56560461  0.11343255     0.01100
Br678      Br  0.45935591  0.49982955  0.94372289    -0.02700
Br679      Br  0.49667901  0.43507933  0.03136275    -0.03600
Br680      Br  0.57505057  0.50828379  0.95615426     0.00400
C681        C  0.52775115  0.11945139  0.97453043     0.01800
C682        C  0.55068072  0.12426677  0.96570056     0.04600
C683        C  0.55758518  0.15693886  0.95807554    -0.11400
C684        C  0.54147141  0.18475409  0.95900966     0.23900
C685        C  0.51824837  0.17988324  0.96716761    -0.12000
C686        C  0.51141187  0.14721292  0.97499967     0.05400
C687        C  0.54991553  0.21932671  0.95330408     0.27800
C688        C  0.56832607  0.23807386  0.98361029    -0.12700
C689        C  0.57719525  0.27053422  0.97843339     0.05900
C690        C  0.56731722  0.28462579  0.94285860    -0.08600
C691        C  0.54912235  0.26549607  0.91236255     0.06700
C692        C  0.54048160  0.23284628  0.91767446    -0.13000
Br693      Br  0.49623577  0.21811633  0.96827050    -0.05100
Br694      Br  0.57305996  0.08621532  0.96510634     0.00500
Br695      Br  0.60446595  0.29442570  0.02000562     0.01000
Br696      Br  0.51583254  0.20627826  0.87632767    -0.03400
Br697      Br  0.47980960  0.14031554  0.98658612     0.01100
Br698      Br  0.58957061  0.16395949  0.94735447    -0.02700
Br699      Br  0.58176629  0.21873199  0.03220066    -0.03600
Br700      Br  0.53516124  0.28405000  0.86340844     0.00400
C701        C  0.68490029  0.39024083  0.97588785     0.01800
C702        C  0.69762767  0.41845561  0.96708854     0.04600
C703        C  0.72636780  0.41921860  0.97760939    -0.11400
C704        C  0.74252331  0.39167880  0.99655572     0.23900
C705        C  0.73000251  0.36376871  0.00598437    -0.12000
C706        C  0.70127566  0.36303020  0.99576028     0.05400
C707        C  0.77274724  0.39203683  0.00678484     0.27800
C708        C  0.78341943  0.37839736  0.98257667    -0.12700
C709        C  0.81215712  0.37731847  0.99304726     0.05900
C710        C  0.83030867  0.38993158  0.02781837    -0.08600
C711        C  0.81952689  0.40393686  0.05181531     0.06700
C712        C  0.79083322  0.40511749  0.04121669    -0.13000
Br713      Br  0.75246664  0.32662520  0.03303735    -0.05100
Br714      Br  0.67562913  0.45522684  0.93842506     0.00500
Br715      Br  0.82655705  0.35632494  0.96080509     0.01000
Br716      Br  0.77610617  0.42437270  0.07393878    -0.03400
Br717      Br  0.68466712  0.32525416  0.01029865     0.01100
Br718      Br  0.74377279  0.45787152  0.96588020    -0.02700
Br719      Br  0.75851193  0.36048497  0.93543032    -0.03600
Br720      Br  0.84401352  0.42219924  0.09911064     0.00400
loop_ 
_geom_bond_atom_site_label_1 
_geom_bond_atom_site_label_2 
_geom_bond_distance 
_geom_bond_site_symmetry_2 
_ccdc_geom_bond_type 
O1            C4   1.264       .  A
O1           Cd6   2.491       .  S
C2           O11   1.265       .  A
C2            O7   1.266       .  A
C2          C670   1.480       .  S
O3            C9   1.265       .  A
O3           Cd6   2.462       .  S
C4           O12   1.261       .  A
C4          C701   1.482       .  S
C5           O10   1.264       .  A
C5            O8   1.264       .  A
C5          C690   1.477       .  S
Cd6          O13   2.465       .  S
Cd6          O12   2.481       .  S
Cd6          O11   2.466       .  S
Cd6           O7   2.482       .  S
Cd6          O10   2.469       .  S
Cd6           O8   2.447       .  S
C9           O13   1.266       .  A
C9          C641   1.479       .  S
O14          C17   1.268       .  A
O14         Cd19   2.476       .  S
C15          O24   1.262       .  A
C15          O20   1.267       .  A
C15         C710   1.479       .  S
O16          C22   1.266       .  A
O16         Cd19   2.480       .  S
C17          O25   1.267       .  A
C17         C601   1.486       .  S
C18          O23   1.263       .  A
C18          O21   1.263       .  A
C18         C581   1.488       .  S
Cd19         O26   2.455       .  S
Cd19         O25   2.471       .  S
Cd19         O24   2.439       .  S
Cd19         O20   2.496       .  S
Cd19         O23   2.486       .  S
Cd19         O21   2.468       .  S
C22          O26   1.264       .  A
C22         C630   1.475       .  S
N27          C32   1.354       .  A
N27          C31   1.351       .  A
N27          H59   1.043       .  S
N28          C35   1.348       .  A
N28          C36   1.351       .  A
N29          C34   1.350       .  A
N29          C33   1.352       .  A
N29          H60   1.043       .  S
N30          C37   1.350       .  A
N30          C38   1.350       .  A
C31          C39   1.388       .  A
C31          C47   1.415   1_554  A
C32          C48   1.415       .  A
C32          C40   1.387       .  A
C33          C41   1.386       .  A
C33          C50   1.414       .  A
C34          C49   1.413   1_556  A
C34          C42   1.387       .  A
C35          C47   1.410       .  A
C35          C43   1.386       .  A
C36          C50   1.412   1_545  A
C36          C44   1.386       .  A
C37          C45   1.386       .  A
C37          C48   1.412   1_565  A
C38          C46   1.386       .  A
C38          C49   1.412       .  A
C39          C40   1.377       .  A
C39          H51   1.083       .  S
C40          H52   1.082       .  S
C41          C42   1.378       .  A
C41          H53   1.082       .  S
C42          H54   1.082       .  S
C43          C44   1.373       .  A
C43          H55   1.082       .  S
C44          H56   1.082       .  S
C45          C46   1.374       .  A
C45          H57   1.082       .  S
C46          H58   1.082       .  S
C47         C681   1.483       .  S
C48         C541   1.491       .  S
C49         C521   1.485       .  S
C50         C570   1.492       .  S
N61          C66   1.354       .  A
N61          C65   1.354       .  A
N61          H93   1.043       .  S
N62          C69   1.348       .  A
N62          C70   1.349       .  A
N63          C68   1.352       .  A
N63          C67   1.353   1_554  A
N63          H94   1.038   1_554  S
N64          C71   1.350       .  A
N64          C72   1.350   1_655  A
C65          C73   1.387       .  A
C65          C81   1.415       .  A
C66          C82   1.414       .  A
C66          C74   1.386       .  A
C67          C75   1.388   1_556  A
C67          C84   1.415   1_455  A
C68          C83   1.413       .  A
C68          C76   1.386       .  A
C69          C81   1.411   1_565  A
C69          C77   1.387       .  A
C70          C84   1.413       .  A
C70          C78   1.386       .  A
C71          C79   1.388       .  A
C71          C82   1.413   1_554  A
C72          C80   1.384       .  A
C72          C83   1.409   1_545  A
C73          C74   1.376       .  A
C73          H85   1.082       .  S
C74          H86   1.082       .  S
C75          C76   1.375       .  A
C75          H87   1.082       .  S
C76          H88   1.082       .  S
C77          C78   1.373       .  A
C77          H89   1.082       .  S
C78          H90   1.082       .  S
C79          C80   1.373   1_655  A
C79          H91   1.082       .  S
C80          H92   1.082       .  S
C81         C490   1.488       .  S
C82         C621   1.529   1_556  S
C83         C510   1.487       .  S
C84         C461   1.486   1_655  S
O95          C98   1.266       .  A
O95        Cd100   2.471       .  S
C96         O105   1.265       .  A
C96         O101   1.265       .  A
C96         C430   1.483       .  S
O97         C103   1.267       .  A
O97        Cd100   2.485       .  S
C98         O106   1.265       .  A
C98         C530   1.480       .  S
C99         O104   1.266       .  A
C99         O102   1.262       .  A
C99         C661   1.484       .  S
Cd100       O107   2.466       .  S
Cd100       O106   2.448       .  S
Cd100       O105   2.462       .  S
Cd100       O101   2.467       .  S
Cd100       O104   2.501       .  S
Cd100       O102   2.455       .  S
C103        O107   1.264       .  A
C103        C450   1.482       .  S
O108        C111   1.266       .  A
O108       Cd113   2.473       .  S
C109        O118   1.265       .  A
C109        O114   1.265       .  A
C109        C470   1.484       .  S
O110        C116   1.265       .  A
O110       Cd113   2.487       .  S
C111        O119   1.265       .  A
C111        C401   1.481       .  S
C112        O117   1.267       .  A
C112        O115   1.264       .  A
C112        C441   1.482       .  S
Cd113       O120   2.470       .  S
Cd113       O119   2.465       .  S
Cd113       O118   2.477       .  S
Cd113       O114   2.464       .  S
Cd113       O117   2.490       .  S
Cd113       O115   2.465       .  S
C116        O120   1.263       .  A
C116        C610   1.486       .  S
O121        C124   1.267       .  A
O121       Cd126   2.497       .  S
C122        O131   1.263       .  A
C122        O127   1.263       .  A
C122        C341   1.480       .  S
O123        C129   1.264       .  A
O123       Cd126   2.484       .  S
C124        O132   1.264       .  A
C124        C390   1.492       .  S
C125        O130   1.266       .  A
C125        O128   1.266       .  A
C125        C370   1.482       .  S
Cd126       O133   2.461       .  S
Cd126       O132   2.457       .  S
Cd126       O131   2.491       .  S
Cd126       O127   2.487       .  S
Cd126       O130   2.463       .  S
Cd126       O128   2.453       .  S
C129        O133   1.262       .  A
C129        C501   1.482       .  S
O134        C137   1.265       .  A
O134       Cd139   2.478       .  S
C135        O144   1.265       .  A
C135        O140   1.266       .  A
C135        C381   1.487       .  S
O136        C142   1.263       .  A
O136       Cd139   2.464       .  S
C137        O145   1.264       .  A
C137        C310   1.481       .  S
C138        O143   1.264       .  A
C138        O141   1.264       .  A
C138        C561   1.486       .  S
Cd139       O146   2.496       .  S
Cd139       O145   2.474       .  S
Cd139       O144   2.467       .  S
Cd139       O140   2.491       .  S
Cd139       O143   2.487       .  S
Cd139       O141   2.474       .  S
C142        O146   1.265       .  A
C142        C321   1.486       .  S
N147        C152   1.355       .  A
N147        C151   1.355       .  A
N147        H179   1.036       .  S
N148        C155   1.350       .  A
N148        C156   1.350       .  A
N149        C154   1.354       .  A
N149        C153   1.354       .  A
N149        H180   1.037       .  S
N150        C157   1.350       .  A
N150        C158   1.351       .  A
C151        C159   1.388       .  A
C151        C167   1.420       .  A
C152        C168   1.419       .  A
C152        C160   1.388       .  A
C153        C161   1.387       .  A
C153        C170   1.417       .  A
C154        C169   1.418       .  A
C154        C162   1.388       .  A
C155        C167   1.415       .  A
C155        C163   1.387       .  A
C156        C170   1.414       .  A
C156        C164   1.386       .  A
C157        C165   1.387       .  A
C157        C168   1.416       .  A
C158        C166   1.386       .  A
C158        C169   1.416       .  A
C159        C160   1.371       .  A
C159        H171   1.082       .  S
C160        H172   1.082       .  S
C161        C162   1.372       .  A
C161        H173   1.082       .  S
C162        H174   1.082       .  S
C163        C164   1.371       .  A
C163        H175   1.082       .  S
C164        H176   1.082       .  S
C165        C166   1.373       .  A
C165        H177   1.082       .  S
C166        H178   1.082       .  S
C167        C421   1.489       .  S
C168        C330   1.489       .  S
C169        C650   1.490       .  S
C170        C290   1.486       .  S
N181        C186   1.353       .  A
N181        C185   1.352       .  A
N181        H213   1.038       .  S
N182        C189   1.350       .  A
N182        C190   1.351       .  A
N183        C188   1.352       .  A
N183        C187   1.351       .  A
N183        H214   1.038       .  S
N184        C191   1.350       .  A
N184        C192   1.351       .  A
C185        C193   1.387       .  A
C185        C201   1.415       .  A
C186        C202   1.415       .  A
C186        C194   1.387       .  A
C187        C195   1.387       .  A
C187        C204   1.412       .  A
C188        C203   1.413       .  A
C188        C196   1.387       .  A
C189        C201   1.412       .  A
C189        C197   1.386       .  A
C190        C204   1.411   1_455  A
C190        C198   1.385       .  A
C191        C199   1.387       .  A
C191        C202   1.413       .  A
C192        C200   1.386   1_455  A
C192        C203   1.413   1_455  A
C193        C194   1.376       .  A
C193        H205   1.082       .  S
C194        H206   1.082       .  S
C195        C196   1.374       .  A
C195        H207   1.083       .  S
C196        H208   1.082       .  S
C197        C198   1.374       .  A
C197        H209   1.082       .  S
C198        H210   1.082   1_455  S
C199        C200   1.374   1_455  A
C199        H211   1.082       .  S
C200        H212   1.082       .  S
C201        C361   1.485       .  S
C202        C410   1.487       .  S
C203        C270   1.488       .  S
C204        C590   1.485       .  S
O215        C218   1.265       .  A
O215       Cd220   2.477       .  S
C216        O225   1.265       .  A
C216        O221   1.262       .  A
C216        C281   1.483       .  S
O217        C223   1.265       .  A
O217       Cd220   2.477       .  S
C218        O226   1.264       .  A
C218        C550   1.484       .  S
C219        O224   1.266       .  A
C219        O222   1.266       .  A
C219        C241   1.482       .  S
Cd220       O227   2.453       .  S
Cd220       O226   2.470       .  S
Cd220       O225   2.488       .  S
Cd220       O221   2.455       .  S
Cd220       O224   2.492       .  S
Cd220       O222   2.456       .  S
C223        O227   1.262       .  A
C223        C301   1.475       .  S
O228        C231   1.266       .  A
O228       Cd233   2.458       .  S
C229        O238   1.263       .  A
C229        O234   1.268       .  A
C229        C481   1.482       .  S
O230        C236   1.269       .  A
O230       Cd233   2.459       .  S
C231        O239   1.265       .  A
C231        C261   1.477       .  S
C232        O237   1.264       .  A
C232        O235   1.268       .  A
C232        C350   1.484       .  S
Cd233       O240   2.455       .  S
Cd233       O239   2.458       .  S
Cd233       O238   2.428       .  S
Cd233       O234   2.472       .  S
Cd233       O237   2.462       .  S
Cd233       O235   2.490       .  S
C236        O240   1.265       .  A
C236        C250   1.478       .  S
C241        C242   1.411       .  A
C241        C246   1.413       .  A
C242        C243   1.407       .  A
C242       Br254   1.932       .  S
C243        C244   1.408       .  A
C243       Br258   1.930       .  S
C244        C247   1.487       .  S
C244        C245   1.410       .  A
C245        C246   1.411       .  A
C245       Br253   1.929       .  S
C246       Br257   1.929       .  S
C247        C248   1.408       .  A
C247        C252   1.410       .  A
C248        C249   1.407       .  A
C248       Br259   1.929       .  S
C249        C250   1.411       .  A
C249       Br255   1.932       .  S
C250        C251   1.411       .  A
C251        C252   1.409       .  A
C251       Br260   1.931       .  S
C252       Br256   1.929       .  S
C261        C262   1.411       .  A
C261        C266   1.412       .  A
C262        C263   1.407       .  A
C262       Br274   1.931       .  S
C263        C264   1.409       .  A
C263       Br278   1.930       .  S
C264        C267   1.484       .  S
C264        C265   1.409       .  A
C265        C266   1.407       .  A
C265       Br273   1.931       .  S
C266       Br277   1.931       .  S
C267        C268   1.410       .  A
C267        C272   1.410       .  A
C268        C269   1.407       .  A
C268       Br279   1.930       .  S
C269        C270   1.410       .  A
C269       Br275   1.930       .  S
C270        C271   1.409   1_655  A
C271        C272   1.406   1_455  A
C271       Br280   1.930       .  S
C272       Br276   1.930   1_655  S
C281        C282   1.415       .  A
C281        C286   1.416       .  A
C282        C283   1.408       .  A
C282       Br294   1.932       .  S
C283        C284   1.408       .  A
C283       Br298   1.931       .  S
C284        C287   1.482       .  S
C284        C285   1.406       .  A
C285        C286   1.407       .  A
C285       Br293   1.931       .  S
C286       Br297   1.932       .  S
C287        C288   1.410       .  A
C287        C292   1.409       .  A
C288        C289   1.407       .  A
C288       Br299   1.928       .  S
C289        C290   1.408       .  A
C289       Br295   1.928       .  S
C290        C291   1.408       .  A
C291        C292   1.405       .  A
C291       Br300   1.930       .  S
C292       Br296   1.929       .  S
C301        C302   1.410       .  A
C301        C306   1.410       .  A
C302        C303   1.408       .  A
C302       Br314   1.930       .  S
C303        C304   1.410       .  A
C303       Br318   1.928   1_545  S
C304        C307   1.486   1_545  S
C304        C305   1.409       .  A
C305        C306   1.407       .  A
C305       Br313   1.930       .  S
C306       Br317   1.931       .  S
C307        C308   1.409       .  A
C307        C312   1.409       .  A
C308        C309   1.408       .  A
C308       Br319   1.930       .  S
C309        C310   1.412       .  A
C309       Br315   1.930       .  S
C310        C311   1.413       .  A
C311        C312   1.409       .  A
C311       Br320   1.931       .  S
C312       Br316   1.930   1_565  S
C321        C322   1.415       .  A
C321        C326   1.416       .  A
C322        C323   1.407       .  A
C322       Br334   1.932       .  S
C323        C324   1.407       .  A
C323       Br338   1.931       .  S
C324        C327   1.484       .  S
C324        C325   1.408       .  A
C325        C326   1.410       .  A
C325       Br333   1.931       .  S
C326       Br337   1.930       .  S
C327        C328   1.410       .  A
C327        C332   1.409       .  A
C328        C329   1.408       .  A
C328       Br339   1.929       .  S
C329        C330   1.410       .  A
C329       Br335   1.929       .  S
C330        C331   1.408       .  A
C331        C332   1.406       .  A
C331       Br340   1.929       .  S
C332       Br336   1.929       .  S
C341        C342   1.412       .  A
C341        C346   1.410       .  A
C342        C343   1.410       .  A
C342       Br354   1.930       .  S
C343        C344   1.409   1_565  A
C343       Br358   1.929   1_455  S
C344        C347   1.489       .  S
C344        C345   1.410       .  A
C345        C346   1.409   1_545  A
C345       Br353   1.929       .  S
C346       Br357   1.929   1_565  S
C347        C348   1.410   1_455  A
C347        C352   1.408       .  A
C348        C349   1.410       .  A
C348       Br359   1.929       .  S
C349        C350   1.412       .  A
C349       Br355   1.930       .  S
C350        C351   1.414       .  A
C351        C352   1.409   1_655  A
C351       Br360   1.930       .  S
C352       Br356   1.930   1_545  S
C361        C362   1.409       .  A
C361        C366   1.410       .  A
C362        C363   1.404       .  A
C362       Br374   1.930   1_455  S
C363        C364   1.409       .  A
C363       Br378   1.929       .  S
C364        C367   1.481       .  S
C364        C365   1.409       .  A
C365        C366   1.407       .  A
C365       Br373   1.928       .  S
C366       Br377   1.928       .  S
C367        C368   1.407       .  A
C367        C372   1.406       .  A
C368        C369   1.407       .  A
C368       Br379   1.932       .  S
C369        C370   1.415       .  A
C369       Br375   1.931       .  S
C370        C371   1.416       .  A
C371        C372   1.407       .  A
C371       Br380   1.933       .  S
C372       Br376   1.930       .  S
C381        C382   1.416       .  A
C381        C386   1.414       .  A
C382        C383   1.411       .  A
C382       Br394   1.930       .  S
C383        C384   1.409       .  A
C383       Br398   1.929       .  S
C384        C387   1.489       .  S
C384        C385   1.408       .  A
C385        C386   1.408       .  A
C385       Br393   1.931       .  S
C386       Br397   1.931       .  S
C387        C388   1.408       .  A
C387        C392   1.406       .  A
C388        C389   1.411       .  A
C388       Br399   1.931       .  S
C389        C390   1.417       .  A
C389       Br395   1.931       .  S
C390        C391   1.419       .  A
C391        C392   1.409       .  A
C391       Br400   1.933       .  S
C392       Br396   1.931       .  S
C401        C402   1.412       .  A
C401        C406   1.413       .  A
C402        C403   1.408       .  A
C402       Br414   1.930       .  S
C403        C404   1.408       .  A
C403       Br418   1.930       .  S
C404        C407   1.485       .  S
C404        C405   1.408       .  A
C405        C406   1.408       .  A
C405       Br413   1.930       .  S
C406       Br417   1.932       .  S
C407        C408   1.410       .  A
C407        C412   1.409       .  A
C408        C409   1.407       .  A
C408       Br419   1.928       .  S
C409        C410   1.409       .  A
C409       Br415   1.929   1_455  S
C410        C411   1.409       .  A
C411        C412   1.406       .  A
C411       Br420   1.929       .  S
C412       Br416   1.929       .  S
C421        C422   1.410       .  A
C421        C426   1.408       .  A
C422        C423   1.406       .  A
C422       Br434   1.930       .  S
C423        C424   1.409       .  A
C423       Br438   1.928       .  S
C424        C427   1.484       .  S
C424        C425   1.410       .  A
C425        C426   1.407       .  A
C425       Br433   1.929       .  S
C426       Br437   1.928       .  S
C427        C428   1.407       .  A
C427        C432   1.408       .  A
C428        C429   1.408       .  A
C428       Br439   1.931       .  S
C429        C430   1.416       .  A
C429       Br435   1.932       .  S
C430        C431   1.415       .  A
C431        C432   1.408       .  A
C431       Br440   1.932       .  S
C432       Br436   1.930       .  S
C441        C442   1.413       .  A
C441        C446   1.412       .  A
C442        C443   1.410   1_556  A
C442       Br454   1.931       .  S
C443        C444   1.409   1_554  A
C443       Br458   1.929       .  S
C444        C447   1.489   1_556  S
C444        C445   1.410       .  A
C445        C446   1.409       .  A
C445       Br453   1.930       .  S
C446       Br457   1.930       .  S
C447        C448   1.410   1_554  A
C447        C452   1.409       .  A
C448        C449   1.409   1_556  A
C448       Br459   1.929       .  S
C449        C450   1.411       .  A
C449       Br455   1.930   1_554  S
C450        C451   1.413       .  A
C451        C452   1.409       .  A
C451       Br460   1.931       .  S
C452       Br456   1.930       .  S
C461        C462   1.408   1_455  A
C461        C466   1.409       .  A
C462        C463   1.408       .  A
C462       Br474   1.928       .  S
C463        C464   1.411   1_655  A
C463       Br478   1.928       .  S
C464        C467   1.485       .  S
C464        C465   1.409       .  A
C465        C466   1.404       .  A
C465       Br473   1.929       .  S
C466       Br477   1.931       .  S
C467        C468   1.409       .  A
C467        C472   1.408       .  A
C468        C469   1.409       .  A
C468       Br479   1.932   1_556  S
C469        C470   1.415       .  A
C469       Br475   1.931   1_556  S
C470        C471   1.415       .  A
C471        C472   1.408       .  A
C471       Br480   1.932       .  S
C472       Br476   1.930       .  S
C481        C482   1.418       .  A
C481        C486   1.415       .  A
C482        C483   1.407       .  A
C482       Br494   1.933       .  S
C483        C484   1.406       .  A
C483       Br498   1.931       .  S
C484        C487   1.481       .  S
C484        C485   1.407       .  A
C485        C486   1.407       .  A
C485       Br493   1.931       .  S
C486       Br497   1.932       .  S
C487        C488   1.408       .  A
C487        C492   1.408       .  A
C488        C489   1.405       .  A
C488       Br499   1.931       .  S
C489        C490   1.410       .  A
C489       Br495   1.929       .  S
C490        C491   1.411       .  A
C491        C492   1.406       .  A
C491       Br500   1.930   1_655  S
C492       Br496   1.928   1_655  S
C501        C502   1.414       .  A
C501        C506   1.414       .  A
C502        C503   1.408       .  A
C502       Br514   1.931       .  S
C503        C504   1.408       .  A
C503       Br518   1.931       .  S
C504        C507   1.483       .  S
C504        C505   1.408       .  A
C505        C506   1.407       .  A
C505       Br513   1.931   1_565  S
C506       Br517   1.932       .  S
C507        C508   1.411       .  A
C507        C512   1.409       .  A
C508        C509   1.406       .  A
C508       Br519   1.929       .  S
C509        C510   1.409       .  A
C509       Br515   1.929       .  S
C510        C511   1.411   1_455  A
C511        C512   1.405   1_655  A
C511       Br520   1.931       .  S
C512       Br516   1.930   1_455  S
C521        C522   1.409       .  A
C521        C526   1.409       .  A
C522        C523   1.405       .  A
C522       Br534   1.930   1_554  S
C523        C524   1.408       .  A
C523       Br538   1.930       .  S
C524        C527   1.481       .  S
C524        C525   1.409       .  A
C525        C526   1.406       .  A
C525       Br533   1.928       .  S
C526       Br537   1.929       .  S
C527        C528   1.407       .  A
C527        C532   1.408       .  A
C528        C529   1.406       .  A
C528       Br539   1.930       .  S
C529        C530   1.414       .  A
C529       Br535   1.932       .  S
C530        C531   1.414       .  A
C531        C532   1.408       .  A
C531       Br540   1.931       .  S
C532       Br536   1.931   1_554  S
C541        C542   1.410       .  A
C541        C546   1.410       .  A
C542        C543   1.409       .  A
C542       Br554   1.928       .  S
C543        C544   1.410       .  A
C543       Br558   1.929       .  S
C544        C547   1.487       .  S
C544        C545   1.409       .  A
C545        C546   1.407       .  A
C545       Br553   1.929       .  S
C546       Br557   1.930   1_545  S
C547        C548   1.408       .  A
C547        C552   1.408       .  A
C548        C549   1.409       .  A
C548       Br559   1.930       .  S
C549        C550   1.414       .  A
C549       Br555   1.931       .  S
C550        C551   1.415       .  A
C551        C552   1.409       .  A
C551       Br560   1.933       .  S
C552       Br556   1.930       .  S
C561        C562   1.415       .  A
C561        C566   1.415       .  A
C562        C563   1.410       .  A
C562       Br574   1.932       .  S
C563        C564   1.409       .  A
C563       Br578   1.930       .  S
C564        C567   1.488       .  S
C564        C565   1.409       .  A
C565        C566   1.408       .  A
C565       Br573   1.932       .  S
C566       Br577   1.931       .  S
C567        C568   1.411       .  A
C567        C572   1.410       .  A
C568        C569   1.407       .  A
C568       Br579   1.930       .  S
C569        C570   1.411       .  A
C569       Br575   1.930       .  S
C570        C571   1.412       .  A
C571        C572   1.408       .  A
C571       Br580   1.931       .  S
C572       Br576   1.929       .  S
C581        C582   1.418       .  A
C581        C586   1.418       .  A
C582        C583   1.407       .  A
C582       Br594   1.933       .  S
C583        C584   1.405       .  A
C583       Br598   1.931       .  S
C584        C587   1.482       .  S
C584        C585   1.407       .  A
C585        C586   1.409       .  A
C585       Br593   1.932       .  S
C586       Br597   1.931       .  S
C587        C588   1.409       .  A
C587        C592   1.409       .  A
C588        C589   1.406   1_655  A
C588       Br599   1.930   1_655  S
C589        C590   1.409   1_455  A
C589       Br595   1.929       .  S
C590        C591   1.410       .  A
C591        C592   1.405       .  A
C591       Br600   1.931       .  S
C592       Br596   1.928       .  S
C601        C602   1.414       .  A
C601        C606   1.415       .  A
C602        C603   1.409   1_554  A
C602       Br614   1.930   1_554  S
C603        C604   1.408       .  A
C603       Br618   1.930   1_655  S
C604        C607   1.487   1_655  S
C604        C605   1.408   1_556  A
C605        C606   1.409       .  A
C605       Br613   1.931       .  S
C606       Br617   1.931       .  S
C607        C608   1.408   1_556  A
C607        C612   1.407       .  A
C608        C609   1.409   1_554  A
C608       Br619   1.930       .  S
C609        C610   1.415       .  A
C609       Br615   1.931   1_556  S
C610        C611   1.417       .  A
C611        C612   1.409       .  A
C611       Br620   1.933       .  S
C612       Br616   1.931   1_455  S
C621        C622   1.420       .  A
C621        C626   1.422   1_554  A
C622        C623   1.406       .  A
C622       Br634   1.934       .  S
C623        C624   1.405       .  A
C623       Br638   1.927       .  S
C624        C627   1.483       .  S
C624        C625   1.407   1_554  A
C625        C626   1.408       .  A
C625       Br633   1.929       .  S
C626       Br637   1.934       .  S
C627        C628   1.409       .  A
C627        C632   1.409       .  A
C628        C629   1.407       .  A
C628       Br639   1.930       .  S
C629        C630   1.411       .  A
C629       Br635   1.932       .  S
C630        C631   1.409       .  A
C631        C632   1.408       .  A
C631       Br640   1.929       .  S
C632       Br636   1.929       .  S
C641        C642   1.413       .  A
C641        C646   1.413       .  A
C642        C643   1.407       .  A
C642       Br654   1.931       .  S
C643        C644   1.407       .  A
C643       Br658   1.930       .  S
C644        C647   1.483       .  S
C644        C645   1.408       .  A
C645        C646   1.408       .  A
C645       Br653   1.930       .  S
C646       Br657   1.931       .  S
C647        C648   1.409       .  A
C647        C652   1.409       .  A
C648        C649   1.407       .  A
C648       Br659   1.929       .  S
C649        C650   1.410       .  A
C649       Br655   1.927       .  S
C650        C651   1.409       .  A
C651        C652   1.406       .  A
C651       Br660   1.929       .  S
C652       Br656   1.929       .  S
C661        C662   1.413       .  A
C661        C666   1.415       .  A
C662        C663   1.410   1_554  A
C662       Br674   1.930   1_554  S
C663        C664   1.409   1_556  A
C663       Br678   1.930       .  S
C664        C667   1.486       .  S
C664        C665   1.407       .  A
C665        C666   1.408       .  A
C665       Br673   1.930       .  S
C666       Br677   1.932       .  S
C667        C668   1.408       .  A
C667        C672   1.409   1_554  A
C668        C669   1.409   1_554  A
C668       Br679   1.929       .  S
C669        C670   1.413       .  A
C669       Br675   1.930       .  S
C670        C671   1.412       .  A
C671        C672   1.408       .  A
C671       Br680   1.930       .  S
C672       Br676   1.930       .  S
C681        C682   1.409       .  A
C681        C686   1.409       .  A
C682        C683   1.403       .  A
C682       Br694   1.930       .  S
C683        C684   1.408       .  A
C683       Br698   1.930       .  S
C684        C687   1.478       .  S
C684        C685   1.409       .  A
C685        C686   1.405       .  A
C685       Br693   1.929       .  S
C686       Br697   1.930       .  S
C687        C688   1.406       .  A
C687        C692   1.407       .  A
C688        C689   1.404       .  A
C688       Br699   1.932   1_556  S
C689        C690   1.413       .  A
C689       Br695   1.932   1_556  S
C690        C691   1.414       .  A
C691        C692   1.408       .  A
C691       Br700   1.931       .  S
C692       Br696   1.931       .  S
C701        C702   1.413       .  A
C701        C706   1.413       .  A
C702        C703   1.408       .  A
C702       Br714   1.931       .  S
C703        C704   1.408       .  A
C703       Br718   1.929       .  S
C704        C707   1.486   1_556  S
C704        C705   1.409   1_556  A
C705        C706   1.409   1_554  A
C705       Br713   1.931       .  S
C706       Br717   1.930   1_556  S
C707        C708   1.410   1_554  A
C707        C712   1.408       .  A
C708        C709   1.410       .  A
C708       Br719   1.929       .  S
C709        C710   1.412   1_556  A
C709       Br715   1.930       .  S
C710        C711   1.413       .  A
C711        C712   1.407       .  A
C711       Br720   1.932       .  S
C712       Br716   1.929       .  S
